data_image0
_chemical_formula_structural       C2N3SY2
_chemical_formula_sum              "C2 N3 S1 Y2"
_cell_length_a       3.6699039736895083
_cell_length_b       3.669903973703655
_cell_length_c       27.872473615677066
_cell_angle_alpha    90.0
_cell_angle_beta     90.0
_cell_angle_gamma    119.99999999987249

_space_group_name_H-M_alt    "P 1"
_space_group_IT_number       1

loop_
  _space_group_symop_operation_xyz
  'x, y, z'

loop_
  _atom_site_type_symbol
  _atom_site_label
  _atom_site_symmetry_multiplicity
  _atom_site_fract_x
  _atom_site_fract_y
  _atom_site_fract_z
  _atom_site_occupancy
  C   C1        1.0  0.33333298543221457  0.6666669831836742  0.6340288785430142  1.0000
  C   C2        1.0  0.6666669847440475  0.3333329859851446  0.3656021103403664  1.0000
  N   N1        1.0  0.0  0.0  0.5355361132360843  1.0000
  N   N2        1.0  0.33333298543221457  0.6666669831836742  0.6771007796402437  1.0000
  N   N3        1.0  0.6666669847440475  0.3333329859851446  0.3228992203597562  1.0000
  S   S1        1.0  0.6666669847440475  0.3333329859851446  0.4258254469504241  1.0000
  Y   Y1        1.0  0.33333298543221457  0.6666669831836742  0.4878202367303924  1.0000
  Y   Y2        1.0  0.6666669847440475  0.3333329859851446  0.5814642244471998  1.0000
