data_image0
_chemical_formula_structural       CNO2PTi2
_chemical_formula_sum              "C1 N1 O2 P1 Ti2"
_cell_length_a       3.1543062907583654
_cell_length_b       3.15430629075414
_cell_length_c       26.060700598371113
_cell_angle_alpha    90.0
_cell_angle_beta     90.0
_cell_angle_gamma    120.00000000004431

_space_group_name_H-M_alt    "P 1"
_space_group_IT_number       1

loop_
  _space_group_symop_operation_xyz
  'x, y, z'

loop_
  _atom_site_type_symbol
  _atom_site_label
  _atom_site_symmetry_multiplicity
  _atom_site_fract_x
  _atom_site_fract_y
  _atom_site_fract_z
  _atom_site_occupancy
  C   C1        1.0  0.0  0.0  0.5149918397995519  1.0000
  N   N1        1.0  0.3333329854322146  0.6666669831836742  0.6045229908973792  1.0000
  O   O1        1.0  0.3333329854322146  0.6666669831836742  0.6546524155777096  1.0000
  O   O2        1.0  0.6666669847440474  0.3333329859851446  0.3453475844222904  1.0000
  P   P1        1.0  0.6666669847440474  0.3333329859851446  0.40252827768040356  1.0000
  Ti  Ti1       1.0  0.3333329854322146  0.6666669831836742  0.47425095233481884  1.0000
  Ti  Ti2       1.0  0.6666669847440474  0.3333329859851446  0.5662593425460551  1.0000
