data_image0
_chemical_formula_structural       ClHHf2N
_chemical_formula_sum              "Cl1 H1 Hf2 N1"
_cell_length_a       3.313418442433822
_cell_length_b       3.3134184424228277
_cell_length_c       23.08545572510145
_cell_angle_alpha    90.0
_cell_angle_beta     90.0
_cell_angle_gamma    120.00000000010976

_space_group_name_H-M_alt    "P 1"
_space_group_IT_number       1

loop_
  _space_group_symop_operation_xyz
  'x, y, z'

loop_
  _atom_site_type_symbol
  _atom_site_label
  _atom_site_symmetry_multiplicity
  _atom_site_fract_x
  _atom_site_fract_y
  _atom_site_fract_z
  _atom_site_occupancy
  Cl  Cl1       1.0  0.33333298543221446  0.6666669831836742  0.6101441484555987  1.0000
  H   H1        1.0  0.6666669847440474  0.3333329859851446  0.3898558515444013  1.0000
  Hf  Hf1       1.0  0.33333298543221446  0.6666669831836742  0.4326341924443971  1.0000
  Hf  Hf2       1.0  0.6666669847440474  0.3333329859851446  0.5319992511949554  1.0000
  N   N1        1.0  0.0  0.0  0.48267281790597405  1.0000
