data_image0
_chemical_formula_structural       CO2P2Ti2
_chemical_formula_sum              "C1 O2 P2 Ti2"
_cell_length_a       3.1089478059505518
_cell_length_b       3.1089478059409834
_cell_length_c       27.089543618724015
_cell_angle_alpha    90.0
_cell_angle_beta     90.0
_cell_angle_gamma    120.00000000010182

_space_group_name_H-M_alt    "P 1"
_space_group_IT_number       1

loop_
  _space_group_symop_operation_xyz
  'x, y, z'

loop_
  _atom_site_type_symbol
  _atom_site_label
  _atom_site_symmetry_multiplicity
  _atom_site_fract_x
  _atom_site_fract_y
  _atom_site_fract_z
  _atom_site_occupancy
  C   C1        1.0  0.0  0.0  0.5000000356775359  1.0000
  O   O1        1.0  0.3333329854322145  0.6666669831836742  0.6677684893229692  1.0000
  O   O2        1.0  0.6666669847440474  0.3333329859851446  0.3322315106770308  1.0000
  P   P1        1.0  0.3333329854322145  0.6666669831836742  0.6127314525768854  1.0000
  P   P2        1.0  0.6666669847440474  0.3333329859851446  0.38726854742311484  1.0000
  Ti  Ti1       1.0  0.3333329854322145  0.6666669831836742  0.4564784478433234  1.0000
  Ti  Ti2       1.0  0.6666669847440474  0.3333329859851446  0.5435215516241668  1.0000
