data_image0
_chemical_formula_structural       C2NOSSc2
_chemical_formula_sum              "C2 N1 O1 S1 Sc2"
_cell_length_a       3.343180051498768
_cell_length_b       3.34318005147403
_cell_length_c       25.69993180524272
_cell_angle_alpha    90.0
_cell_angle_beta     90.0
_cell_angle_gamma    120.0000000002448

_space_group_name_H-M_alt    "P 1"
_space_group_IT_number       1

loop_
  _space_group_symop_operation_xyz
  'x, y, z'

loop_
  _atom_site_type_symbol
  _atom_site_label
  _atom_site_symmetry_multiplicity
  _atom_site_fract_x
  _atom_site_fract_y
  _atom_site_fract_z
  _atom_site_occupancy
  C   C1        1.0  0.0  0.0  0.4425861924618382  1.0000
  C   C2        1.0  0.33333298543221446  0.6666669831836742  0.5891857242955978  1.0000
  N   N1        1.0  0.33333298543221446  0.6666669831836742  0.5407812154716081  1.0000
  O   O1        1.0  0.6666669847440474  0.3333329859851446  0.3501954817702677  1.0000
  S   S1        1.0  0.33333298543221446  0.6666669831836742  0.6498045182297323  1.0000
  Sc  Sc1       1.0  0.33333298543221446  0.6666669831836742  0.3770213539184893  1.0000
  Sc  Sc2       1.0  0.6666669847440474  0.3333329859851446  0.4886588609588798  1.0000
