data_image0
_chemical_formula_structural       C2ClHf2NO
_chemical_formula_sum              "C2 Cl1 Hf2 N1 O1"
_cell_length_a       3.374256151021364
_cell_length_b       3.3742561510265383
_cell_length_c       26.034168129371174
_cell_angle_alpha    90.0
_cell_angle_beta     90.0
_cell_angle_gamma    119.99999999994928

_space_group_name_H-M_alt    "P 1"
_space_group_IT_number       1

loop_
  _space_group_symop_operation_xyz
  'x, y, z'

loop_
  _atom_site_type_symbol
  _atom_site_label
  _atom_site_symmetry_multiplicity
  _atom_site_fract_x
  _atom_site_fract_y
  _atom_site_fract_z
  _atom_site_occupancy
  C   C1        1.0  0.0  0.0  0.5396220704414343  1.0000
  C   C2        1.0  0.6666669847440474  0.33333298598514444  0.39131741398277137  1.0000
  Cl  Cl1       1.0  0.3333329854322146  0.6666669831836742  0.6543004579490902  1.0000
  Hf  Hf1       1.0  0.3333329854322146  0.6666669831836742  0.49549675647982966  1.0000
  Hf  Hf2       1.0  0.6666669847440474  0.33333298598514444  0.5854110431140346  1.0000
  N   N1        1.0  0.6666669847440474  0.33333298598514444  0.3456995420509095  1.0000
  O   O1        1.0  0.6666669847440474  0.33333298598514444  0.44275808400394817  1.0000
