data_image0
_chemical_formula_structural       BrC2NOZr2
_chemical_formula_sum              "Br1 C2 N1 O1 Zr2"
_cell_length_a       3.4583511522892514
_cell_length_b       3.4583511522829333
_cell_length_c       26.25844578654615
_cell_angle_alpha    90.0
_cell_angle_beta     90.0
_cell_angle_gamma    120.00000000006042

_space_group_name_H-M_alt    "P 1"
_space_group_IT_number       1

loop_
  _space_group_symop_operation_xyz
  'x, y, z'

loop_
  _atom_site_type_symbol
  _atom_site_label
  _atom_site_symmetry_multiplicity
  _atom_site_fract_x
  _atom_site_fract_y
  _atom_site_fract_z
  _atom_site_occupancy
  Br  Br1       1.0  0.3333329854322145  0.6666669831836742  0.6572531339759924  1.0000
  C   C1        1.0  0.0  0.0  0.5357743295139419  1.0000
  C   C2        1.0  0.6666669847440476  0.3333329859851447  0.3880105805910903  1.0000
  N   N1        1.0  0.6666669847440476  0.3333329859851447  0.34274686602400756  1.0000
  O   O1        1.0  0.6666669847440476  0.3333329859851447  0.4388542255627039  1.0000
  Zr  Zr1       1.0  0.3333329854322145  0.6666669831836742  0.491083843428767  1.0000
  Zr  Zr2       1.0  0.6666669847440476  0.3333329859851447  0.5821313648980576  1.0000
