data_image0
_chemical_formula_structural       BrCClOSc2
_chemical_formula_sum              "Br1 C1 Cl1 O1 Sc2"
_cell_length_a       3.468891273533192
_cell_length_b       3.468891273519825
_cell_length_c       25.13980121441979
_cell_angle_alpha    90.0
_cell_angle_beta     90.0
_cell_angle_gamma    120.00000000012747

_space_group_name_H-M_alt    "P 1"
_space_group_IT_number       1

loop_
  _space_group_symop_operation_xyz
  'x, y, z'

loop_
  _atom_site_type_symbol
  _atom_site_label
  _atom_site_symmetry_multiplicity
  _atom_site_fract_x
  _atom_site_fract_y
  _atom_site_fract_z
  _atom_site_occupancy
  Br  Br1       1.0  0.6666669847440474  0.3333329859851446  0.3579980574722184  1.0000
  C   C1        1.0  0.0  0.0  0.4796825995014254  1.0000
  Cl  Cl1       1.0  0.3333329854322145  0.6666669831836742  0.6420019425277818  1.0000
  O   O1        1.0  0.3333329854322145  0.6666669831836742  0.5720189244043057  1.0000
  Sc  Sc1       1.0  0.3333329854322145  0.6666669831836742  0.4321085463615596  1.0000
  Sc  Sc2       1.0  0.6666669847440474  0.3333329859851446  0.5304018805155557  1.0000
