data_image0
_chemical_formula_structural       HNOPY2
_chemical_formula_sum              "H1 N1 O1 P1 Y2"
_cell_length_a       3.4977143910781865
_cell_length_b       3.4977143910803115
_cell_length_c       25.319417753072205
_cell_angle_alpha    90.0
_cell_angle_beta     90.0
_cell_angle_gamma    119.99999999997992

_space_group_name_H-M_alt    "P 1"
_space_group_IT_number       1

loop_
  _space_group_symop_operation_xyz
  'x, y, z'

loop_
  _atom_site_type_symbol
  _atom_site_label
  _atom_site_symmetry_multiplicity
  _atom_site_fract_x
  _atom_site_fract_y
  _atom_site_fract_z
  _atom_site_occupancy
  H   H1        1.0  0.6666669847440474  0.3333329859851446  0.35545841092289565  1.0000
  N   N1        1.0  0.0  0.0  0.4497345399062145  1.0000
  O   O1        1.0  0.3333329854322145  0.6666669831836743  0.6445415890771045  1.0000
  P   P1        1.0  0.3333329854322145  0.6666669831836743  0.5854612565462887  1.0000
  Y   Y1        1.0  0.3333329854322145  0.6666669831836743  0.39670469314855805  1.0000
  Y   Y2        1.0  0.6666669847440474  0.3333329859851446  0.501647889986841  1.0000
