data_image0
_chemical_formula_structural       CFHZr2
_chemical_formula_sum              "C1 F1 H1 Zr2"
_cell_length_a       3.356278989355902
_cell_length_b       3.356278989354699
_cell_length_c       22.776198480394193
_cell_angle_alpha    90.0
_cell_angle_beta     90.0
_cell_angle_gamma    120.00000000001185

_space_group_name_H-M_alt    "P 1"
_space_group_IT_number       1

loop_
  _space_group_symop_operation_xyz
  'x, y, z'

loop_
  _atom_site_type_symbol
  _atom_site_label
  _atom_site_symmetry_multiplicity
  _atom_site_fract_x
  _atom_site_fract_y
  _atom_site_fract_z
  _atom_site_occupancy
  C   C1        1.0  0.0  0.0  0.4949991774882318  1.0000
  F   F1        1.0  0.3333329854322145  0.6666669831836742  0.6048506510975824  1.0000
  H   H1        1.0  0.6666669847440474  0.33333298598514477  0.39514934890241776  1.0000
  Zr  Zr1       1.0  0.3333329854322145  0.6666669831836742  0.4385438121696604  1.0000
  Zr  Zr2       1.0  0.6666669847440474  0.33333298598514477  0.5474445344387078  1.0000
