data_image0
_chemical_formula_structural       C2ClNOSc2
_chemical_formula_sum              "C2 Cl1 N1 O1 Sc2"
_cell_length_a       3.415641337812091
_cell_length_b       3.415641337811976
_cell_length_c       25.9532310696497
_cell_angle_alpha    90.0
_cell_angle_beta     90.0
_cell_angle_gamma    120.00000000000111

_space_group_name_H-M_alt    "P 1"
_space_group_IT_number       1

loop_
  _space_group_symop_operation_xyz
  'x, y, z'

loop_
  _atom_site_type_symbol
  _atom_site_label
  _atom_site_symmetry_multiplicity
  _atom_site_fract_x
  _atom_site_fract_y
  _atom_site_fract_z
  _atom_site_occupancy
  C   C1        1.0  0.0  0.0  0.5051225114450519  1.0000
  C   C2        1.0  0.33333298543221446  0.6666669831836742  0.6070376196174716  1.0000
  Cl  Cl1       1.0  0.6666669847440474  0.33333298598514477  0.3467776314959413  1.0000
  N   N1        1.0  0.33333298543221446  0.6666669831836742  0.6532223685040587  1.0000
  O   O1        1.0  0.6666669847440474  0.33333298598514477  0.4141626531926491  1.0000
  Sc  Sc1       1.0  0.33333298543221446  0.6666669831836742  0.4558443475997279  1.0000
  Sc  Sc2       1.0  0.6666669847440474  0.33333298598514477  0.5521036609428922  1.0000
