data_image0
_chemical_formula_structural       CFN2Ti2
_chemical_formula_sum              "C1 F1 N2 Ti2"
_cell_length_a       3.219971066118441
_cell_length_b       3.21997106611794
_cell_length_c       23.860758341810428
_cell_angle_alpha    90.0
_cell_angle_beta     90.0
_cell_angle_gamma    120.00000000000516

_space_group_name_H-M_alt    "P 1"
_space_group_IT_number       1

loop_
  _space_group_symop_operation_xyz
  'x, y, z'

loop_
  _atom_site_type_symbol
  _atom_site_label
  _atom_site_symmetry_multiplicity
  _atom_site_fract_x
  _atom_site_fract_y
  _atom_site_fract_z
  _atom_site_occupancy
  C   C1        1.0  0.3333329854322146  0.6666669831836742  0.5724251604162481  1.0000
  F   F1        1.0  0.6666669847440474  0.3333329859851446  0.3771883471209544  1.0000
  N   N1        1.0  0.0  0.0  0.4690835919863403  1.0000
  N   N2        1.0  0.3333329854322146  0.6666669831836742  0.6228116528790455  1.0000
  Ti  Ti1       1.0  0.3333329854322146  0.6666669831836742  0.4270419283547503  1.0000
  Ti  Ti2       1.0  0.6666669847440474  0.3333329859851446  0.5137742291158856  1.0000
