data_image0
_chemical_formula_structural       C2N3Sc2
_chemical_formula_sum              "C2 N3 Sc2"
_cell_length_a       3.317259761280376
_cell_length_b       3.3172597612709516
_cell_length_c       25.698125415679737
_cell_angle_alpha    90.0
_cell_angle_beta     90.0
_cell_angle_gamma    120.00000000009398

_space_group_name_H-M_alt    "P 1"
_space_group_IT_number       1

loop_
  _space_group_symop_operation_xyz
  'x, y, z'

loop_
  _atom_site_type_symbol
  _atom_site_label
  _atom_site_symmetry_multiplicity
  _atom_site_fract_x
  _atom_site_fract_y
  _atom_site_fract_z
  _atom_site_occupancy
  C   C1        1.0  0.3333329854322145  0.6666669831836742  0.6030867046502865  1.0000
  C   C2        1.0  0.6666669847440474  0.3333329859851446  0.39691329584276036  1.0000
  N   N1        1.0  0.0  0.0  0.5000000332806627  1.0000
  N   N2        1.0  0.3333329854322145  0.6666669831836742  0.6497799020582007  1.0000
  N   N3        1.0  0.6666669847440474  0.3333329859851446  0.3502200979417993  1.0000
  Sc  Sc1       1.0  0.3333329854322145  0.6666669831836742  0.45261112172003454  1.0000
  Sc  Sc2       1.0  0.6666669847440474  0.3333329859851446  0.5473888782799566  1.0000
