data_image0
_chemical_formula_structural       C2FNZr2
_chemical_formula_sum              "C2 F1 N1 Zr2"
_cell_length_a       3.3902655649936184
_cell_length_b       3.39026556499346
_cell_length_c       24.46730704514694
_cell_angle_alpha    90.0
_cell_angle_beta     90.0
_cell_angle_gamma    120.00000000000155

_space_group_name_H-M_alt    "P 1"
_space_group_IT_number       1

loop_
  _space_group_symop_operation_xyz
  'x, y, z'

loop_
  _atom_site_type_symbol
  _atom_site_label
  _atom_site_symmetry_multiplicity
  _atom_site_fract_x
  _atom_site_fract_y
  _atom_site_fract_z
  _atom_site_occupancy
  C   C1        1.0  0.0  0.0  0.4698603867798209  1.0000
  C   C2        1.0  0.33333298543221446  0.6666669831836743  0.582938474610817  1.0000
  F   F1        1.0  0.6666669847440474  0.33333298598514477  0.3678377838391962  1.0000
  N   N1        1.0  0.33333298543221446  0.6666669831836743  0.6321622161608038  1.0000
  Zr  Zr1       1.0  0.33333298543221446  0.6666669831836743  0.4210293374536014  1.0000
  Zr  Zr2       1.0  0.6666669847440474  0.33333298598514477  0.5220508109748239  1.0000
