data_image0
_chemical_formula_structural       NO2Sc2
_chemical_formula_sum              "N1 O2 Sc2"
_cell_length_a       3.260980910245101
_cell_length_b       3.2609809102234077
_cell_length_c       22.403777071506866
_cell_angle_alpha    90.0
_cell_angle_beta     90.0
_cell_angle_gamma    120.00000000022006

_space_group_name_H-M_alt    "P 1"
_space_group_IT_number       1

loop_
  _space_group_symop_operation_xyz
  'x, y, z'

loop_
  _atom_site_type_symbol
  _atom_site_label
  _atom_site_symmetry_multiplicity
  _atom_site_fract_x
  _atom_site_fract_y
  _atom_site_fract_z
  _atom_site_occupancy
  N   N1        1.0  0.0  0.0  0.5000000392107946  1.0000
  O   O1        1.0  0.3333329854322146  0.6666669831836742  0.5982820231037647  1.0000
  O   O2        1.0  0.6666669847440474  0.3333329859851446  0.4017179768962351  1.0000
  Sc  Sc1       1.0  0.3333329854322146  0.6666669831836742  0.4364953032352138  1.0000
  Sc  Sc2       1.0  0.6666669847440474  0.3333329859851446  0.5635046961795399  1.0000
