data_image0
_chemical_formula_structural       BrHf2N2O
_chemical_formula_sum              "Br1 Hf2 N2 O1"
_cell_length_a       3.356769232041893
_cell_length_b       3.3567692320290017
_cell_length_c       24.830103480532546
_cell_angle_alpha    90.0
_cell_angle_beta     90.0
_cell_angle_gamma    120.00000000012703

_space_group_name_H-M_alt    "P 1"
_space_group_IT_number       1

loop_
  _space_group_symop_operation_xyz
  'x, y, z'

loop_
  _atom_site_type_symbol
  _atom_site_label
  _atom_site_symmetry_multiplicity
  _atom_site_fract_x
  _atom_site_fract_y
  _atom_site_fract_z
  _atom_site_occupancy
  Br  Br1       1.0  0.6666669847440473  0.3333329859851446  0.3624632497829192  1.0000
  Hf  Hf1       1.0  0.33333298543221435  0.6666669831836741  0.4420869977526724  1.0000
  Hf  Hf2       1.0  0.6666669847440473  0.3333329859851446  0.5386662212308277  1.0000
  N   N1        1.0  0.0  0.0  0.48708678571510544  1.0000
  N   N2        1.0  0.33333298543221435  0.6666669831836741  0.5836128852335445  1.0000
  O   O1        1.0  0.33333298543221435  0.6666669831836741  0.6375367502170808  1.0000
