data_image0
_chemical_formula_structural       CN2OPSc2
_chemical_formula_sum              "C1 N2 O1 P1 Sc2"
_cell_length_a       3.2879795205654956
_cell_length_b       3.287979520558275
_cell_length_c       26.533286970449765
_cell_angle_alpha    90.0
_cell_angle_beta     90.0
_cell_angle_gamma    120.00000000007266

_space_group_name_H-M_alt    "P 1"
_space_group_IT_number       1

loop_
  _space_group_symop_operation_xyz
  'x, y, z'

loop_
  _atom_site_type_symbol
  _atom_site_label
  _atom_site_symmetry_multiplicity
  _atom_site_fract_x
  _atom_site_fract_y
  _atom_site_fract_z
  _atom_site_occupancy
  C   C1        1.0  0.3333329854322146  0.6666669831836742  0.6156069251654079  1.0000
  N   N1        1.0  0.0  0.0  0.5153157842716134  1.0000
  N   N2        1.0  0.3333329854322146  0.6666669831836742  0.6608034274071155  1.0000
  O   O1        1.0  0.6666669847440474  0.3333329859851445  0.3391965725928845  1.0000
  P   P1        1.0  0.6666669847440474  0.3333329859851445  0.3954833131356842  1.0000
  Sc  Sc1       1.0  0.3333329854322146  0.6666669831836742  0.4702113690082135  1.0000
  Sc  Sc2       1.0  0.6666669847440474  0.3333329859851445  0.5609464738731142  1.0000
