data_image0
_chemical_formula_structural       C2N3O2Zr2
_chemical_formula_sum              "C2 N3 O2 Zr2"
_cell_length_a       3.3915938158428913
_cell_length_b       3.391593815819067
_cell_length_c       28.07284971289952
_cell_angle_alpha    90.0
_cell_angle_beta     90.0
_cell_angle_gamma    120.00000000023238

_space_group_name_H-M_alt    "P 1"
_space_group_IT_number       1

loop_
  _space_group_symop_operation_xyz
  'x, y, z'

loop_
  _atom_site_type_symbol
  _atom_site_label
  _atom_site_symmetry_multiplicity
  _atom_site_fract_x
  _atom_site_fract_y
  _atom_site_fract_z
  _atom_site_occupancy
  C   C1        1.0  0.3333329854322145  0.6666669831836742  0.6370797496628705  1.0000
  C   C2        1.0  0.6666669847440472  0.3333329859851446  0.3629202499053567  1.0000
  N   N1        1.0  0.0  0.0  0.5000000289287206  1.0000
  N   N2        1.0  0.3333329854322145  0.6666669831836742  0.679405543361546  1.0000
  N   N3        1.0  0.6666669847440472  0.3333329859851446  0.320594456638454  1.0000
  O   O1        1.0  0.3333329854322145  0.6666669831836742  0.589439732211699  1.0000
  O   O2        1.0  0.6666669847440472  0.3333329859851446  0.4105602677883006  1.0000
  Zr  Zr1       1.0  0.3333329854322145  0.6666669831836742  0.459213157602427  1.0000
  Zr  Zr2       1.0  0.6666669847440472  0.3333329859851446  0.5407868419657932  1.0000
