data_image0
_chemical_formula_structural       CN3O2Ti2
_chemical_formula_sum              "C1 N3 O2 Ti2"
_cell_length_a       3.122540694990863
_cell_length_b       3.122540694989543
_cell_length_c       27.40090896981743
_cell_angle_alpha    90.0
_cell_angle_beta     90.0
_cell_angle_gamma    120.00000000001398

_space_group_name_H-M_alt    "P 1"
_space_group_IT_number       1

loop_
  _space_group_symop_operation_xyz
  'x, y, z'

loop_
  _atom_site_type_symbol
  _atom_site_label
  _atom_site_symmetry_multiplicity
  _atom_site_fract_x
  _atom_site_fract_y
  _atom_site_fract_z
  _atom_site_occupancy
  C   C1        1.0  0.6666669847440474  0.3333329859851446  0.3723753174970993  1.0000
  N   N1        1.0  0.0  0.0  0.49485144540547005  1.0000
  N   N2        1.0  0.33333298543221446  0.6666669831836742  0.5972969955041381  1.0000
  N   N3        1.0  0.6666669847440474  0.3333329859851446  0.417724450023131  1.0000
  O   O1        1.0  0.33333298543221446  0.6666669831836742  0.6715437429497811  1.0000
  O   O2        1.0  0.6666669847440474  0.3333329859851446  0.3284562570502189  1.0000
  Ti  Ti1       1.0  0.33333298543221446  0.6666669831836742  0.47033235134501367  1.0000
  Ti  Ti2       1.0  0.6666669847440474  0.3333329859851446  0.6310646325354021  1.0000
