data_image0
_chemical_formula_structural       H2Hf2N
_chemical_formula_sum              "H2 Hf2 N1"
_cell_length_a       3.1803035115885883
_cell_length_b       3.180303511598588
_cell_length_c       22.536345868757678
_cell_angle_alpha    90.0
_cell_angle_beta     90.0
_cell_angle_gamma    119.999999999896

_space_group_name_H-M_alt    "P 1"
_space_group_IT_number       1

loop_
  _space_group_symop_operation_xyz
  'x, y, z'

loop_
  _atom_site_type_symbol
  _atom_site_label
  _atom_site_symmetry_multiplicity
  _atom_site_fract_x
  _atom_site_fract_y
  _atom_site_fract_z
  _atom_site_occupancy
  H   H1        1.0  0.3333329854322145  0.6666669831836742  0.6006451066906648  1.0000
  H   H2        1.0  0.6666669847440474  0.3333329859851446  0.3993548933093353  1.0000
  Hf  Hf1       1.0  0.3333329854322145  0.6666669831836742  0.4445913742059982  1.0000
  Hf  Hf2       1.0  0.6666669847440474  0.3333329859851446  0.5554086251823055  1.0000
  N   N1        1.0  0.0  0.0  0.5000000409829073  1.0000
