data_image0
_chemical_formula_structural       C2N3OSZr2
_chemical_formula_sum              "C2 N3 O1 S1 Zr2"
_cell_length_a       3.3998057782015847
_cell_length_b       3.3998057781985347
_cell_length_c       28.400107966988696
_cell_angle_alpha    90.0
_cell_angle_beta     90.0
_cell_angle_gamma    120.00000000002969

_space_group_name_H-M_alt    "P 1"
_space_group_IT_number       1

loop_
  _space_group_symop_operation_xyz
  'x, y, z'

loop_
  _atom_site_type_symbol
  _atom_site_label
  _atom_site_symmetry_multiplicity
  _atom_site_fract_x
  _atom_site_fract_y
  _atom_site_fract_z
  _atom_site_occupancy
  C   C1        1.0  0.3333329854322146  0.6666669831836743  0.6406542759507287  1.0000
  C   C2        1.0  0.6666669847440474  0.33333298598514477  0.3715808853459997  1.0000
  N   N1        1.0  0.0  0.0  0.5057530473809577  1.0000
  N   N2        1.0  0.3333329854322146  0.6666669831836743  0.5967424889242148  1.0000
  N   N3        1.0  0.6666669847440474  0.33333298598514477  0.415746446485055  1.0000
  O   O1        1.0  0.3333329854322146  0.6666669831836743  0.6830997962943912  1.0000
  S   S1        1.0  0.6666669847440474  0.33333298598514477  0.3169002037056087  1.0000
  Zr  Zr1       1.0  0.3333329854322146  0.6666669831836743  0.4644457633429179  1.0000
  Zr  Zr2       1.0  0.6666669847440474  0.33333298598514477  0.5460827322740853  1.0000
