data_image0
_chemical_formula_structural       C2N3OSSc2
_chemical_formula_sum              "C2 N3 O1 S1 Sc2"
_cell_length_a       3.329523526374329
_cell_length_b       3.329523526368288
_cell_length_c       28.267569327294012
_cell_angle_alpha    90.0
_cell_angle_beta     90.0
_cell_angle_gamma    120.00000000006001

_space_group_name_H-M_alt    "P 1"
_space_group_IT_number       1

loop_
  _space_group_symop_operation_xyz
  'x, y, z'

loop_
  _atom_site_type_symbol
  _atom_site_label
  _atom_site_symmetry_multiplicity
  _atom_site_fract_x
  _atom_site_fract_y
  _atom_site_fract_z
  _atom_site_occupancy
  C   C1        1.0  0.33333298543221457  0.6666669831836742  0.626734100281176  1.0000
  C   C2        1.0  0.6666669847440476  0.3333329859851446  0.36040533795431007  1.0000
  N   N1        1.0  0.0  0.0  0.4929809107502541  1.0000
  N   N2        1.0  0.33333298543221457  0.6666669831836742  0.5823695672572367  1.0000
  N   N3        1.0  0.6666669847440476  0.3333329859851446  0.31838605915472074  1.0000
  O   O1        1.0  0.6666669847440476  0.3333329859851446  0.40767549879756915  1.0000
  S   S1        1.0  0.33333298543221457  0.6666669831836742  0.6816139408452793  1.0000
  Sc  Sc1       1.0  0.33333298543221457  0.6666669831836742  0.4518479362884205  1.0000
  Sc  Sc2       1.0  0.6666669847440476  0.3333329859851446  0.5377003867083985  1.0000
