data_image0
_chemical_formula_structural       CHf2O2P
_chemical_formula_sum              "C1 Hf2 O2 P1"
_cell_length_a       3.2786569261595337
_cell_length_b       3.27865692614499
_cell_length_c       25.013072847104365
_cell_angle_alpha    90.0
_cell_angle_beta     90.0
_cell_angle_gamma    120.00000000014676

_space_group_name_H-M_alt    "P 1"
_space_group_IT_number       1

loop_
  _space_group_symop_operation_xyz
  'x, y, z'

loop_
  _atom_site_type_symbol
  _atom_site_label
  _atom_site_symmetry_multiplicity
  _atom_site_fract_x
  _atom_site_fract_y
  _atom_site_fract_z
  _atom_site_occupancy
  C   C1        1.0  0.0  0.0  0.4531774648902859  1.0000
  Hf  Hf1       1.0  0.33333298543221446  0.6666669831836742  0.3971994023591982  1.0000
  Hf  Hf2       1.0  0.6666669847440474  0.3333329859851446  0.5026764136179893  1.0000
  O   O1        1.0  0.33333298543221446  0.6666669831836742  0.6401881506117357  1.0000
  O   O2        1.0  0.6666669847440474  0.3333329859851446  0.3598118493882644  1.0000
  P   P1        1.0  0.33333298543221446  0.6666669831836742  0.5804712643847592  1.0000
