data_image0
_chemical_formula_structural       BrN2OY2
_chemical_formula_sum              "Br1 N2 O1 Y2"
_cell_length_a       3.6917226702674952
_cell_length_b       3.691722670285403
_cell_length_c       24.934211464497082
_cell_angle_alpha    90.0
_cell_angle_beta     90.0
_cell_angle_gamma    119.99999999983955

_space_group_name_H-M_alt    "P 1"
_space_group_IT_number       1

loop_
  _space_group_symop_operation_xyz
  'x, y, z'

loop_
  _atom_site_type_symbol
  _atom_site_label
  _atom_site_symmetry_multiplicity
  _atom_site_fract_x
  _atom_site_fract_y
  _atom_site_fract_z
  _atom_site_occupancy
  Br  Br1       1.0  0.6666669847440476  0.3333329859851446  0.3609498544926826  1.0000
  N   N1        1.0  0.0  0.0  0.4835640238312093  1.0000
  N   N2        1.0  0.33333298543221457  0.6666669831836741  0.584742036120647  1.0000
  O   O1        1.0  0.33333298543221457  0.6666669831836741  0.6390501455073174  1.0000
  Y   Y1        1.0  0.33333298543221457  0.6666669831836741  0.4402769932611181  1.0000
  Y   Y2        1.0  0.6666669847440476  0.3333329859851446  0.5528404001838786  1.0000
