data_image0
_chemical_formula_structural       CFHf2N2S
_chemical_formula_sum              "C1 F1 Hf2 N2 S1"
_cell_length_a       3.3542240217260133
_cell_length_b       3.3542240217257704
_cell_length_c       25.71282793341876
_cell_angle_alpha    90.0
_cell_angle_beta     90.0
_cell_angle_gamma    120.0000000000024

_space_group_name_H-M_alt    "P 1"
_space_group_IT_number       1

loop_
  _space_group_symop_operation_xyz
  'x, y, z'

loop_
  _atom_site_type_symbol
  _atom_site_label
  _atom_site_symmetry_multiplicity
  _atom_site_fract_x
  _atom_site_fract_y
  _atom_site_fract_z
  _atom_site_occupancy
  C   C1        1.0  0.3333329854322145  0.6666669831836742  0.5896953292978413  1.0000
  F   F1        1.0  0.6666669847440473  0.3333329859851446  0.35001984314229284  1.0000
  Hf  Hf1       1.0  0.3333329854322145  0.6666669831836742  0.4007934525652593  1.0000
  Hf  Hf2       1.0  0.6666669847440473  0.3333329859851446  0.4887757768147876  1.0000
  N   N1        1.0  0.0  0.0  0.4421350734688815  1.0000
  N   N2        1.0  0.3333329854322145  0.6666669831836742  0.540491020368327  1.0000
  S   S1        1.0  0.3333329854322145  0.6666669831836742  0.6499801568577074  1.0000
