data_image0
_chemical_formula_structural       C2N3S2Zr2
_chemical_formula_sum              "C2 N3 S2 Zr2"
_cell_length_a       3.4811919869789647
_cell_length_b       3.4811919869710644
_cell_length_c       29.024969241891988
_cell_angle_alpha    90.0
_cell_angle_beta     90.0
_cell_angle_gamma    120.00000000007508

_space_group_name_H-M_alt    "P 1"
_space_group_IT_number       1

loop_
  _space_group_symop_operation_xyz
  'x, y, z'

loop_
  _atom_site_type_symbol
  _atom_site_label
  _atom_site_symmetry_multiplicity
  _atom_site_fract_x
  _atom_site_fract_y
  _atom_site_fract_z
  _atom_site_occupancy
  C   C1        1.0  0.3333329854322146  0.6666669831836743  0.6363785937384634  1.0000
  C   C2        1.0  0.6666669847440474  0.3333329859851447  0.3510975413113755  1.0000
  N   N1        1.0  0.0  0.0  0.5089712252607503  1.0000
  N   N2        1.0  0.3333329854322146  0.6666669831836743  0.593141093815304  1.0000
  N   N3        1.0  0.6666669847440474  0.3333329859851447  0.3100778479727111  1.0000
  S   S1        1.0  0.3333329854322146  0.6666669831836743  0.6899221520272888  1.0000
  S   S2        1.0  0.6666669847440474  0.3333329859851447  0.40912545807117173  1.0000
  Zr  Zr1       1.0  0.3333329854322146  0.6666669831836743  0.46636560119695947  1.0000
  Zr  Zr2       1.0  0.6666669847440474  0.3333329859851447  0.5462410626452455  1.0000
