data_image0
_chemical_formula_structural       C3N2OSZr2
_chemical_formula_sum              "C3 N2 O1 S1 Zr2"
_cell_length_a       3.4767414560416974
_cell_length_b       3.4767414560315415
_cell_length_c       28.861575426521426
_cell_angle_alpha    90.0
_cell_angle_beta     90.0
_cell_angle_gamma    120.00000000009663

_space_group_name_H-M_alt    "P 1"
_space_group_IT_number       1

loop_
  _space_group_symop_operation_xyz
  'x, y, z'

loop_
  _atom_site_type_symbol
  _atom_site_label
  _atom_site_symmetry_multiplicity
  _atom_site_fract_x
  _atom_site_fract_y
  _atom_site_fract_z
  _atom_site_occupancy
  C   C1        1.0  0.0  0.0  0.5134257181369202  1.0000
  C   C2        1.0  0.3333329854322145  0.6666669831836745  0.6464333935675888  1.0000
  C   C3        1.0  0.6666669847440472  0.3333329859851446  0.3530902757433076  1.0000
  N   N1        1.0  0.3333329854322145  0.6666669831836745  0.6031682264877662  1.0000
  N   N2        1.0  0.6666669847440472  0.3333329859851446  0.3118332893127427  1.0000
  O   O1        1.0  0.3333329854322145  0.6666669831836745  0.6881667106872574  1.0000
  S   S1        1.0  0.6666669847440472  0.3333329859851446  0.41134770437654944  1.0000
  Zr  Zr1       1.0  0.3333329854322145  0.6666669831836745  0.47019204600538717  1.0000
  Zr  Zr2       1.0  0.6666669847440472  0.3333329859851446  0.5536089914962612  1.0000
