data_image0
_chemical_formula_structural       C2FNOY2
_chemical_formula_sum              "C2 F1 N1 O1 Y2"
_cell_length_a       3.618672950537886
_cell_length_b       3.618672950542358
_cell_length_c       25.76959678018178
_cell_angle_alpha    90.0
_cell_angle_beta     90.0
_cell_angle_gamma    119.99999999995913

_space_group_name_H-M_alt    "P 1"
_space_group_IT_number       1

loop_
  _space_group_symop_operation_xyz
  'x, y, z'

loop_
  _atom_site_type_symbol
  _atom_site_label
  _atom_site_symmetry_multiplicity
  _atom_site_fract_x
  _atom_site_fract_y
  _atom_site_fract_z
  _atom_site_occupancy
  C   C1        1.0  0.0  0.0  0.447415989143041  1.0000
  C   C2        1.0  0.3333329854322146  0.6666669831836742  0.6039234516908284  1.0000
  F   F1        1.0  0.6666669847440474  0.3333329859851446  0.34924877081978606  1.0000
  N   N1        1.0  0.3333329854322146  0.6666669831836742  0.5555979707786471  1.0000
  O   O1        1.0  0.3333329854322146  0.6666669831836742  0.6507512291802141  1.0000
  Y   Y1        1.0  0.3333329854322146  0.6666669831836742  0.3939710097458303  1.0000
  Y   Y2        1.0  0.6666669847440474  0.3333329859851446  0.5003255313917526  1.0000
