data_image0
_chemical_formula_structural       BrHHf2NO
_chemical_formula_sum              "Br1 H1 Hf2 N1 O1"
_cell_length_a       3.3747134412762168
_cell_length_b       3.374713441268568
_cell_length_c       24.455341979539416
_cell_angle_alpha    90.0
_cell_angle_beta     90.0
_cell_angle_gamma    120.00000000007498

_space_group_name_H-M_alt    "P 1"
_space_group_IT_number       1

loop_
  _space_group_symop_operation_xyz
  'x, y, z'

loop_
  _atom_site_type_symbol
  _atom_site_label
  _atom_site_symmetry_multiplicity
  _atom_site_fract_x
  _atom_site_fract_y
  _atom_site_fract_z
  _atom_site_occupancy
  Br  Br1       1.0  0.3333329854322145  0.6666669831836742  0.6319822471699696  1.0000
  H   H1        1.0  0.6666669847440473  0.3333329859851446  0.3680177528300303  1.0000
  Hf  Hf1       1.0  0.3333329854322145  0.6666669831836742  0.4598937266278207  1.0000
  Hf  Hf2       1.0  0.6666669847440473  0.3333329859851446  0.5521927990146016  1.0000
  N   N1        1.0  0.0  0.0  0.5046687276286465  1.0000
  O   O1        1.0  0.6666669847440473  0.3333329859851446  0.40865682072471043  1.0000
