data_image0
_chemical_formula_structural       CClO2Zr2
_chemical_formula_sum              "C1 Cl1 O2 Zr2"
_cell_length_a       3.32160464052707
_cell_length_b       3.3216046405267927
_cell_length_c       26.324859616344295
_cell_angle_alpha    90.0
_cell_angle_beta     90.0
_cell_angle_gamma    120.00000000000277

_space_group_name_H-M_alt    "P 1"
_space_group_IT_number       1

loop_
  _space_group_symop_operation_xyz
  'x, y, z'

loop_
  _atom_site_type_symbol
  _atom_site_label
  _atom_site_symmetry_multiplicity
  _atom_site_fract_x
  _atom_site_fract_y
  _atom_site_fract_z
  _atom_site_occupancy
  C   C1        1.0  0.0  0.0  0.4304693379449088  1.0000
  Cl  Cl1       1.0  0.33333298543221446  0.6666669831836742  0.6581178349603742  1.0000
  O   O1        1.0  0.33333298543221446  0.6666669831836742  0.5184900127228091  1.0000
  O   O2        1.0  0.6666669847440474  0.3333329859851446  0.3418821650396259  1.0000
  Zr  Zr1       1.0  0.33333298543221446  0.6666669831836742  0.3771490464154295  1.0000
  Zr  Zr2       1.0  0.6666669847440474  0.3333329859851446  0.4846931456691571  1.0000
