data_image0
_chemical_formula_structural       BrC2NOSc2
_chemical_formula_sum              "Br1 C2 N1 O1 Sc2"
_cell_length_a       3.445968969475898
_cell_length_b       3.44596896947471
_cell_length_c       26.09653137342907
_cell_angle_alpha    90.0
_cell_angle_beta     90.0
_cell_angle_gamma    120.00000000001141

_space_group_name_H-M_alt    "P 1"
_space_group_IT_number       1

loop_
  _space_group_symop_operation_xyz
  'x, y, z'

loop_
  _atom_site_type_symbol
  _atom_site_label
  _atom_site_symmetry_multiplicity
  _atom_site_fract_x
  _atom_site_fract_y
  _atom_site_fract_z
  _atom_site_occupancy
  Br  Br1       1.0  0.6666669847440474  0.3333329859851446  0.3448734190461652  1.0000
  C   C1        1.0  0.0  0.0  0.4632755091049245  1.0000
  C   C2        1.0  0.3333329854322145  0.6666669831836742  0.6089441240682101  1.0000
  N   N1        1.0  0.3333329854322145  0.6666669831836742  0.5611707227143765  1.0000
  O   O1        1.0  0.3333329854322145  0.6666669831836742  0.6551265809538347  1.0000
  Sc  Sc1       1.0  0.3333329854322145  0.6666669831836742  0.4163518054922348  1.0000
  Sc  Sc2       1.0  0.6666669847440474  0.3333329859851446  0.5108748416068825  1.0000
