data_image0
_chemical_formula_structural       CClHY2
_chemical_formula_sum              "C1 Cl1 H1 Y2"
_cell_length_a       3.6616850937634986
_cell_length_b       3.6616850937785808
_cell_length_c       23.53245611303145
_cell_angle_alpha    90.0
_cell_angle_beta     90.0
_cell_angle_gamma    119.99999999986376

_space_group_name_H-M_alt    "P 1"
_space_group_IT_number       1

loop_
  _space_group_symop_operation_xyz
  'x, y, z'

loop_
  _atom_site_type_symbol
  _atom_site_label
  _atom_site_symmetry_multiplicity
  _atom_site_fract_x
  _atom_site_fract_y
  _atom_site_fract_z
  _atom_site_occupancy
  C   C1        1.0  0.0  0.0  0.48437427834415203  1.0000
  Cl  Cl1       1.0  0.3333329854322145  0.6666669831836742  0.6175494832850823  1.0000
  H   H1        1.0  0.6666669847440474  0.3333329859851446  0.3824505167149177  1.0000
  Y   Y1        1.0  0.3333329854322145  0.6666669831836742  0.4265231571104247  1.0000
  Y   Y2        1.0  0.6666669847440474  0.3333329859851446  0.542008057040237  1.0000
