data_image0
_chemical_formula_structural       HNOPZr2
_chemical_formula_sum              "H1 N1 O1 P1 Zr2"
_cell_length_a       3.2501611238218486
_cell_length_b       3.250161123821731
_cell_length_c       25.080403813177835
_cell_angle_alpha    90.0
_cell_angle_beta     90.0
_cell_angle_gamma    120.00000000000121

_space_group_name_H-M_alt    "P 1"
_space_group_IT_number       1

loop_
  _space_group_symop_operation_xyz
  'x, y, z'

loop_
  _atom_site_type_symbol
  _atom_site_label
  _atom_site_symmetry_multiplicity
  _atom_site_fract_x
  _atom_site_fract_y
  _atom_site_fract_z
  _atom_site_occupancy
  H   H1        1.0  0.6666669847440473  0.33333298598514477  0.3588458968619632  1.0000
  N   N1        1.0  0.0  0.0  0.45091491988269244  1.0000
  O   O1        1.0  0.33333298543221457  0.6666669831836742  0.6411541031380368  1.0000
  P   P1        1.0  0.33333298543221457  0.6666669831836742  0.581677987317821  1.0000
  Zr  Zr1       1.0  0.33333298543221457  0.6666669831836742  0.3994129506988969  1.0000
  Zr  Zr2       1.0  0.6666669847440473  0.33333298598514477  0.5028036330702743  1.0000
