data_image0
_chemical_formula_structural       CFNOTi2
_chemical_formula_sum              "C1 F1 N1 O1 Ti2"
_cell_length_a       3.221783478587958
_cell_length_b       3.2217834785878185
_cell_length_c       23.763546970174858
_cell_angle_alpha    90.0
_cell_angle_beta     90.0
_cell_angle_gamma    120.00000000000144

_space_group_name_H-M_alt    "P 1"
_space_group_IT_number       1

loop_
  _space_group_symop_operation_xyz
  'x, y, z'

loop_
  _atom_site_type_symbol
  _atom_site_label
  _atom_site_symmetry_multiplicity
  _atom_site_fract_x
  _atom_site_fract_y
  _atom_site_fract_z
  _atom_site_occupancy
  C   C1        1.0  0.0  0.0  0.47180238222586446  1.0000
  F   F1        1.0  0.6666669847440476  0.3333329859851447  0.37873134054001767  1.0000
  N   N1        1.0  0.3333329854322145  0.6666669831836742  0.5659293905778997  1.0000
  O   O1        1.0  0.3333329854322145  0.6666669831836742  0.6212686594599823  1.0000
  Ti  Ti1       1.0  0.3333329854322145  0.6666669831836742  0.4286623468162037  1.0000
  Ti  Ti2       1.0  0.6666669847440476  0.3333329859851447  0.5278934617131812  1.0000
