data_image0
_chemical_formula_structural       CClN2OSY2
_chemical_formula_sum              "C1 Cl1 N2 O1 S1 Y2"
_cell_length_a       3.771747903895195
_cell_length_b       3.771747903917082
_cell_length_c       27.852221366051847
_cell_angle_alpha    90.0
_cell_angle_beta     90.0
_cell_angle_gamma    119.99999999980804

_space_group_name_H-M_alt    "P 1"
_space_group_IT_number       1

loop_
  _space_group_symop_operation_xyz
  'x, y, z'

loop_
  _atom_site_type_symbol
  _atom_site_label
  _atom_site_symmetry_multiplicity
  _atom_site_fract_x
  _atom_site_fract_y
  _atom_site_fract_z
  _atom_site_occupancy
  C   C1        1.0  0.6666669847440472  0.3333329859851446  0.36603476505684673  1.0000
  Cl  Cl1       1.0  0.3333329854322145  0.6666669831836742  0.6768659891892931  1.0000
  N   N1        1.0  0.0  0.0  0.5150181357792792  1.0000
  N   N2        1.0  0.6666669847440472  0.3333329859851446  0.323134010810707  1.0000
  O   O1        1.0  0.3333329854322145  0.6666669831836742  0.5803134114712917  1.0000
  S   S1        1.0  0.6666669847440472  0.3333329859851446  0.4256494426196971  1.0000
  Y   Y1        1.0  0.3333329854322145  0.6666669831836742  0.4934632320695794  1.0000
  Y   Y2        1.0  0.6666669847440472  0.3333329859851446  0.6061947541611767  1.0000
