data_image0
_chemical_formula_structural       C2N3STi2
_chemical_formula_sum              "C2 N3 S1 Ti2"
_cell_length_a       3.204418002192506
_cell_length_b       3.2044180021921593
_cell_length_c       26.810399444995234
_cell_angle_alpha    90.0
_cell_angle_beta     90.0
_cell_angle_gamma    120.00000000000358

_space_group_name_H-M_alt    "P 1"
_space_group_IT_number       1

loop_
  _space_group_symop_operation_xyz
  'x, y, z'

loop_
  _atom_site_type_symbol
  _atom_site_label
  _atom_site_symmetry_multiplicity
  _atom_site_fract_x
  _atom_site_fract_y
  _atom_site_fract_z
  _atom_site_occupancy
  C   C1        1.0  0.33333298543221457  0.6666669831836742  0.6194651107898005  1.0000
  C   C2        1.0  0.6666669847440473  0.3333329859851446  0.3934908973629933  1.0000
  N   N1        1.0  0.0  0.0  0.5277512659213514  1.0000
  N   N2        1.0  0.33333298543221457  0.6666669831836742  0.664309365533155  1.0000
  N   N3        1.0  0.6666669847440473  0.3333329859851446  0.44022773859974274  1.0000
  S   S1        1.0  0.6666669847440473  0.3333329859851446  0.335690634466845  1.0000
  Ti  Ti1       1.0  0.33333298543221457  0.6666669831836742  0.48811652595207566  1.0000
  Ti  Ti2       1.0  0.6666669847440473  0.3333329859851446  0.5667187246132032  1.0000
