data_image0
_chemical_formula_structural       BrCFZr2
_chemical_formula_sum              "Br1 C1 F1 Zr2"
_cell_length_a       3.4436761244465015
_cell_length_b       3.4436761244436584
_cell_length_c       23.69434453306748
_cell_angle_alpha    90.0
_cell_angle_beta     90.0
_cell_angle_gamma    120.00000000002731

_space_group_name_H-M_alt    "P 1"
_space_group_IT_number       1

loop_
  _space_group_symop_operation_xyz
  'x, y, z'

loop_
  _atom_site_type_symbol
  _atom_site_label
  _atom_site_symmetry_multiplicity
  _atom_site_fract_x
  _atom_site_fract_y
  _atom_site_fract_z
  _atom_site_occupancy
  Br  Br1       1.0  0.6666669847440474  0.3333329859851446  0.3798374750329022  1.0000
  C   C1        1.0  0.0  0.0  0.515690222018602  1.0000
  F   F1        1.0  0.33333298543221446  0.6666669831836741  0.6201625249670979  1.0000
  Zr  Zr1       1.0  0.33333298543221446  0.6666669831836741  0.4634622601800805  1.0000
  Zr  Zr2       1.0  0.6666669847440474  0.3333329859851446  0.5651878861933638  1.0000
