data_image0
_chemical_formula_structural       CN2OSSc2
_chemical_formula_sum              "C1 N2 O1 S1 Sc2"
_cell_length_a       3.3843113319185725
_cell_length_b       3.38431133191543
_cell_length_c       25.76966907907719
_cell_angle_alpha    90.0
_cell_angle_beta     90.0
_cell_angle_gamma    120.00000000003072

_space_group_name_H-M_alt    "P 1"
_space_group_IT_number       1

loop_
  _space_group_symop_operation_xyz
  'x, y, z'

loop_
  _atom_site_type_symbol
  _atom_site_label
  _atom_site_symmetry_multiplicity
  _atom_site_fract_x
  _atom_site_fract_y
  _atom_site_fract_z
  _atom_site_occupancy
  C   C1        1.0  0.3333329854322145  0.6666669831836742  0.6045608090907062  1.0000
  N   N1        1.0  0.0  0.0  0.4358772520613948  1.0000
  N   N2        1.0  0.3333329854322145  0.6666669831836742  0.6507522090259495  1.0000
  O   O1        1.0  0.6666669847440474  0.3333329859851446  0.34924779097405023  1.0000
  S   S1        1.0  0.3333329854322145  0.6666669831836742  0.5398800446080682  1.0000
  Sc  Sc1       1.0  0.3333329854322145  0.6666669831836742  0.37391646647242627  1.0000
  Sc  Sc2       1.0  0.6666669847440474  0.3333329859851446  0.4736437299604948  1.0000
