data_image0
_chemical_formula_structural       C2N3OTi2
_chemical_formula_sum              "C2 N3 O1 Ti2"
_cell_length_a       3.172433894298272
_cell_length_b       3.1724338943052506
_cell_length_c       26.512963883570695
_cell_angle_alpha    90.0
_cell_angle_beta     90.0
_cell_angle_gamma    119.99999999992724

_space_group_name_H-M_alt    "P 1"
_space_group_IT_number       1

loop_
  _space_group_symop_operation_xyz
  'x, y, z'

loop_
  _atom_site_type_symbol
  _atom_site_label
  _atom_site_symmetry_multiplicity
  _atom_site_fract_x
  _atom_site_fract_y
  _atom_site_fract_z
  _atom_site_occupancy
  C   C1        1.0  0.3333329854322145  0.6666669831836742  0.6151855553206096  1.0000
  C   C2        1.0  0.6666669847440472  0.3333329859851446  0.38485304883665833  1.0000
  N   N1        1.0  0.0  0.0  0.5216606903396692  1.0000
  N   N2        1.0  0.3333329854322145  0.6666669831836742  0.6605434217191751  1.0000
  N   N3        1.0  0.6666669847440472  0.3333329859851446  0.4318875813416108  1.0000
  O   O1        1.0  0.6666669847440472  0.3333329859851446  0.339456578280825  1.0000
  Ti  Ti1       1.0  0.3333329854322145  0.6666669831836742  0.4822935807174046  1.0000
  Ti  Ti2       1.0  0.6666669847440472  0.3333329859851446  0.5617005643210911  1.0000
