data_image0
_chemical_formula_structural       C2ClNOZr2
_chemical_formula_sum              "C2 Cl1 N1 O1 Zr2"
_cell_length_a       3.423597234277334
_cell_length_b       3.4235972342767003
_cell_length_c       26.121467311125215
_cell_angle_alpha    90.0
_cell_angle_beta     90.0
_cell_angle_gamma    120.00000000000612

_space_group_name_H-M_alt    "P 1"
_space_group_IT_number       1

loop_
  _space_group_symop_operation_xyz
  'x, y, z'

loop_
  _atom_site_type_symbol
  _atom_site_label
  _atom_site_symmetry_multiplicity
  _atom_site_fract_x
  _atom_site_fract_y
  _atom_site_fract_z
  _atom_site_occupancy
  C   C1        1.0  0.0  0.0  0.5395272284295839  1.0000
  C   C2        1.0  0.6666669847440475  0.3333329859851446  0.3900357227053883  1.0000
  Cl  Cl1       1.0  0.3333329854322145  0.6666669831836743  0.6554558022027013  1.0000
  N   N1        1.0  0.6666669847440475  0.3333329859851446  0.3445441977972987  1.0000
  O   O1        1.0  0.6666669847440475  0.3333329859851446  0.4411478686206084  1.0000
  Zr  Zr1       1.0  0.3333329854322145  0.6666669831836743  0.4940634910106723  1.0000
  Zr  Zr2       1.0  0.6666669847440475  0.3333329859851446  0.5863567340361302  1.0000
