data_image0
_chemical_formula_structural       H2NOTi2
_chemical_formula_sum              "H2 N1 O1 Ti2"
_cell_length_a       3.0802024369056995
_cell_length_b       3.0802024369067977
_cell_length_c       23.411261405747766
_cell_angle_alpha    90.0
_cell_angle_beta     90.0
_cell_angle_gamma    119.9999999999882

_space_group_name_H-M_alt    "P 1"
_space_group_IT_number       1

loop_
  _space_group_symop_operation_xyz
  'x, y, z'

loop_
  _atom_site_type_symbol
  _atom_site_label
  _atom_site_symmetry_multiplicity
  _atom_site_fract_x
  _atom_site_fract_y
  _atom_site_fract_z
  _atom_site_occupancy
  H   H1        1.0  0.3333329854322145  0.6666669831836742  0.6155696250612799  1.0000
  H   H2        1.0  0.6666669847440474  0.3333329859851446  0.3844303749387201  1.0000
  N   N1        1.0  0.0  0.0  0.5266317491011402  1.0000
  O   O1        1.0  0.6666669847440474  0.3333329859851446  0.4266607009205573  1.0000
  Ti  Ti1       1.0  0.3333329854322145  0.6666669831836742  0.479766198962889  1.0000
  Ti  Ti2       1.0  0.6666669847440474  0.3333329859851446  0.5731247143126538  1.0000
