data_image0
_chemical_formula_structural       CH2Hf2
_chemical_formula_sum              "C1 H2 Hf2"
_cell_length_a       3.2606465901758193
_cell_length_b       3.2606465901717927
_cell_length_c       22.51609477699558
_cell_angle_alpha    90.0
_cell_angle_beta     90.0
_cell_angle_gamma    120.00000000004086

_space_group_name_H-M_alt    "P 1"
_space_group_IT_number       1

loop_
  _space_group_symop_operation_xyz
  'x, y, z'

loop_
  _atom_site_type_symbol
  _atom_site_label
  _atom_site_symmetry_multiplicity
  _atom_site_fract_x
  _atom_site_fract_y
  _atom_site_fract_z
  _atom_site_occupancy
  C   C1        1.0  0.0  0.0  0.5000000390231993  1.0000
  H   H1        1.0  0.3333329854322145  0.6666669831836741  0.6002859248400754  1.0000
  H   H2        1.0  0.6666669847440475  0.3333329859851446  0.3997140751599247  1.0000
  Hf  Hf1       1.0  0.3333329854322145  0.6666669831836741  0.44521241607919954  1.0000
  Hf  Hf2       1.0  0.6666669847440475  0.3333329859851446  0.5547875833383544  1.0000
