data_image0
_chemical_formula_structural       C2Hf2NOP
_chemical_formula_sum              "C2 Hf2 N1 O1 P1"
_cell_length_a       3.3196301924643055
_cell_length_b       3.319630192450929
_cell_length_c       26.589225151672714
_cell_angle_alpha    90.0
_cell_angle_beta     90.0
_cell_angle_gamma    120.0000000001333

_space_group_name_H-M_alt    "P 1"
_space_group_IT_number       1

loop_
  _space_group_symop_operation_xyz
  'x, y, z'

loop_
  _atom_site_type_symbol
  _atom_site_label
  _atom_site_symmetry_multiplicity
  _atom_site_fract_x
  _atom_site_fract_y
  _atom_site_fract_z
  _atom_site_occupancy
  C   C1        1.0  0.0  0.0  0.514737051825998  1.0000
  C   C2        1.0  0.33333298543221446  0.6666669831836743  0.6160609631672924  1.0000
  Hf  Hf1       1.0  0.33333298543221446  0.6666669831836743  0.46809309513634073  1.0000
  Hf  Hf2       1.0  0.6666669847440473  0.33333298598514477  0.5615663679575102  1.0000
  N   N1        1.0  0.33333298543221446  0.6666669831836743  0.6615170262141389  1.0000
  O   O1        1.0  0.6666669847440473  0.33333298598514477  0.3384829737858613  1.0000
  P   P1        1.0  0.6666669847440473  0.33333298598514477  0.39470190365412877  1.0000
