data_image0
_chemical_formula_structural       C2HNOZr2
_chemical_formula_sum              "C2 H1 N1 O1 Zr2"
_cell_length_a       3.3504701586784584
_cell_length_b       3.3504701586723633
_cell_length_c       25.402103871941
_cell_angle_alpha    90.0
_cell_angle_beta     90.0
_cell_angle_gamma    120.0000000000602

_space_group_name_H-M_alt    "P 1"
_space_group_IT_number       1

loop_
  _space_group_symop_operation_xyz
  'x, y, z'

loop_
  _atom_site_type_symbol
  _atom_site_label
  _atom_site_symmetry_multiplicity
  _atom_site_fract_x
  _atom_site_fract_y
  _atom_site_fract_z
  _atom_site_occupancy
  C   C1        1.0  0.0  0.0  0.44361842758926767  1.0000
  C   C2        1.0  0.3333329854322147  0.6666669831836742  0.598258075092889  1.0000
  H   H1        1.0  0.6666669847440474  0.3333329859851446  0.3543013620199129  1.0000
  N   N1        1.0  0.3333329854322147  0.6666669831836742  0.5491905190799081  1.0000
  O   O1        1.0  0.3333329854322147  0.6666669831836742  0.6456986379800872  1.0000
  Zr  Zr1       1.0  0.3333329854322147  0.6666669831836742  0.3937948746561669  1.0000
  Zr  Zr2       1.0  0.6666669847440474  0.3333329859851446  0.491846430318186  1.0000
