data_image0
_chemical_formula_structural       CN2O2Zr2
_chemical_formula_sum              "C1 N2 O2 Zr2"
_cell_length_a       3.2869412428902747
_cell_length_b       3.2869412428903164
_cell_length_c       25.53230128981976
_cell_angle_alpha    90.0
_cell_angle_beta     90.0
_cell_angle_gamma    119.99999999999959

_space_group_name_H-M_alt    "P 1"
_space_group_IT_number       1

loop_
  _space_group_symop_operation_xyz
  'x, y, z'

loop_
  _atom_site_type_symbol
  _atom_site_label
  _atom_site_symmetry_multiplicity
  _atom_site_fract_x
  _atom_site_fract_y
  _atom_site_fract_z
  _atom_site_occupancy
  C   C1        1.0  0.6666669847440475  0.3333329859851446  0.399009407494388  1.0000
  N   N1        1.0  0.0  0.0  0.5576544530534475  1.0000
  N   N2        1.0  0.6666669847440475  0.3333329859851446  0.352494665398159  1.0000
  O   O1        1.0  0.3333329854322146  0.6666669831836742  0.6475053346018408  1.0000
  O   O2        1.0  0.6666669847440475  0.3333329859851446  0.4513605512649986  1.0000
  Zr  Zr1       1.0  0.3333329854322146  0.6666669831836742  0.5070729781852393  1.0000
  Zr  Zr2       1.0  0.6666669847440475  0.3333329859851446  0.609052938149959  1.0000
