data_image0
_chemical_formula_structural       C2N3OSZr2
_chemical_formula_sum              "C2 N3 O1 S1 Zr2"
_cell_length_a       3.4487477623371405
_cell_length_b       3.448747762260363
_cell_length_c       28.756820209145094
_cell_angle_alpha    90.0
_cell_angle_beta     90.0
_cell_angle_gamma    120.00000000073643

_space_group_name_H-M_alt    "P 1"
_space_group_IT_number       1

loop_
  _space_group_symop_operation_xyz
  'x, y, z'

loop_
  _atom_site_type_symbol
  _atom_site_label
  _atom_site_symmetry_multiplicity
  _atom_site_fract_x
  _atom_site_fract_y
  _atom_site_fract_z
  _atom_site_occupancy
  C   C1        1.0  0.3333329854322147  0.6666669831836742  0.6451497007394613  1.0000
  C   C2        1.0  0.6666669847440474  0.3333329859851446  0.3543750150556422  1.0000
  N   N1        1.0  0.0  0.0  0.5154837203486573  1.0000
  N   N2        1.0  0.3333329854322147  0.6666669831836742  0.6017306782628506  1.0000
  N   N3        1.0  0.6666669847440474  0.3333329859851446  0.3129692342388353  1.0000
  O   O1        1.0  0.3333329854322147  0.6666669831836742  0.6870307657611647  1.0000
  S   S1        1.0  0.6666669847440474  0.3333329859851446  0.4129749403076691  1.0000
  Zr  Zr1       1.0  0.3333329854322147  0.6666669831836742  0.470768473521294  1.0000
  Zr  Zr2       1.0  0.6666669847440474  0.3333329859851446  0.5524958029084123  1.0000
