data_image0
_chemical_formula_structural       C2Hf2N3
_chemical_formula_sum              "C2 Hf2 N3"
_cell_length_a       3.311908150230511
_cell_length_b       3.3119081502278127
_cell_length_c       25.69138969122327
_cell_angle_alpha    90.0
_cell_angle_beta     90.0
_cell_angle_gamma    120.00000000002696

_space_group_name_H-M_alt    "P 1"
_space_group_IT_number       1

loop_
  _space_group_symop_operation_xyz
  'x, y, z'

loop_
  _atom_site_type_symbol
  _atom_site_label
  _atom_site_symmetry_multiplicity
  _atom_site_fract_x
  _atom_site_fract_y
  _atom_site_fract_z
  _atom_site_occupancy
  C   C1        1.0  0.3333329854322145  0.6666669831836742  0.6026104525542152  1.0000
  C   C2        1.0  0.6666669847440474  0.3333329859851446  0.3973895479405563  1.0000
  Hf  Hf1       1.0  0.3333329854322145  0.6666669831836742  0.45410703366586674  1.0000
  Hf  Hf2       1.0  0.6666669847440474  0.3333329859851446  0.5458929663341248  1.0000
  N   N1        1.0  0.0  0.0  0.5000000333970579  1.0000
  N   N2        1.0  0.3333329854322145  0.6666669831836742  0.6496880819539864  1.0000
  N   N3        1.0  0.6666669847440474  0.3333329859851446  0.3503119180460135  1.0000
