data_image0
_chemical_formula_structural       C3N2S2Y2
_chemical_formula_sum              "C3 N2 S2 Y2"
_cell_length_a       3.835254595995135
_cell_length_b       3.835254596170263
_cell_length_c       29.786990338769915
_cell_angle_alpha    90.0
_cell_angle_beta     90.0
_cell_angle_gamma    119.99999999848949

_space_group_name_H-M_alt    "P 1"
_space_group_IT_number       1

loop_
  _space_group_symop_operation_xyz
  'x, y, z'

loop_
  _atom_site_type_symbol
  _atom_site_label
  _atom_site_symmetry_multiplicity
  _atom_site_fract_x
  _atom_site_fract_y
  _atom_site_fract_z
  _atom_site_occupancy
  C   C1        1.0  0.0  0.0  0.500000021480152  1.0000
  C   C2        1.0  0.33333298543221457  0.6666669831836742  0.6578906513616998  1.0000
  C   C3        1.0  0.6666669847440476  0.3333329859851446  0.34210934895652506  1.0000
  N   N1        1.0  0.33333298543221457  0.6666669831836742  0.6978546708599208  1.0000
  N   N2        1.0  0.6666669847440476  0.3333329859851446  0.3021453291400793  1.0000
  S   S1        1.0  0.33333298543221457  0.6666669831836742  0.6016004821349146  1.0000
  S   S2        1.0  0.6666669847440476  0.3333329859851446  0.39839951818331026  1.0000
  Y   Y1        1.0  0.33333298543221457  0.6666669831836742  0.45550609086370125  1.0000
  Y   Y2        1.0  0.6666669847440476  0.3333329859851446  0.5444939091362933  1.0000
