data_image0
_chemical_formula_structural       ClHNO2Zr2
_chemical_formula_sum              "Cl1 H1 N1 O2 Zr2"
_cell_length_a       3.2477624029098227
_cell_length_b       3.2477624029104555
_cell_length_c       27.56017186396438
_cell_angle_alpha    90.0
_cell_angle_beta     90.0
_cell_angle_gamma    119.99999999999355

_space_group_name_H-M_alt    "P 1"
_space_group_IT_number       1

loop_
  _space_group_symop_operation_xyz
  'x, y, z'

loop_
  _atom_site_type_symbol
  _atom_site_label
  _atom_site_symmetry_multiplicity
  _atom_site_fract_x
  _atom_site_fract_y
  _atom_site_fract_z
  _atom_site_occupancy
  Cl  Cl1       1.0  0.3333329854322145  0.6666669831836742  0.6734418041939816  1.0000
  H   H1        1.0  0.6666669847440472  0.3333329859851446  0.3265581958060184  1.0000
  N   N1        1.0  0.0  0.0  0.4611752321262198  1.0000
  O   O1        1.0  0.3333329854322145  0.6666669831836742  0.5444164478558664  1.0000
  O   O2        1.0  0.6666669847440472  0.3333329859851446  0.362595003481327  1.0000
  Zr  Zr1       1.0  0.3333329854322145  0.6666669831836742  0.4128579453375273  1.0000
  Zr  Zr2       1.0  0.6666669847440472  0.3333329859851446  0.5097221671328724  1.0000
