data_image0
_chemical_formula_structural       CClHOTi2
_chemical_formula_sum              "C1 Cl1 H1 O1 Ti2"
_cell_length_a       3.057840454078056
_cell_length_b       3.0578404540797632
_cell_length_c       28.156029266956082
_cell_angle_alpha    90.0
_cell_angle_beta     90.0
_cell_angle_gamma    119.99999999998154

_space_group_name_H-M_alt    "P 1"
_space_group_IT_number       1

loop_
  _space_group_symop_operation_xyz
  'x, y, z'

loop_
  _atom_site_type_symbol
  _atom_site_label
  _atom_site_symmetry_multiplicity
  _atom_site_fract_x
  _atom_site_fract_y
  _atom_site_fract_z
  _atom_site_occupancy
  C   C1        1.0  0.0  0.0  0.39486323759436187  1.0000
  Cl  Cl1       1.0  0.3333329854322146  0.6666669831836742  0.6803526550328458  1.0000
  H   H1        1.0  0.6666669847440474  0.3333329859851446  0.3196473449671542  1.0000
  O   O1        1.0  0.3333329854322146  0.6666669831836742  0.47476133945412824  1.0000
  Ti  Ti1       1.0  0.3333329854322146  0.6666669831836742  0.354489323887444  1.0000
  Ti  Ti2       1.0  0.6666669847440474  0.3333329859851446  0.44288473675937906  1.0000
