data_image0
_chemical_formula_structural       C2NOY2
_chemical_formula_sum              "C2 N1 O1 Y2"
_cell_length_a       3.6258815872281454
_cell_length_b       3.6258815872390406
_cell_length_c       24.48879192122788
_cell_angle_alpha    90.0
_cell_angle_beta     90.0
_cell_angle_gamma    119.99999999990061

_space_group_name_H-M_alt    "P 1"
_space_group_IT_number       1

loop_
  _space_group_symop_operation_xyz
  'x, y, z'

loop_
  _atom_site_type_symbol
  _atom_site_label
  _atom_site_symmetry_multiplicity
  _atom_site_fract_x
  _atom_site_fract_y
  _atom_site_fract_z
  _atom_site_occupancy
  C   C1        1.0  0.0  0.0  0.4701542277547295  1.0000
  C   C2        1.0  0.3333329854322147  0.6666669831836745  0.5835147182204754  1.0000
  N   N1        1.0  0.3333329854322147  0.6666669831836745  0.6324849331502371  1.0000
  O   O1        1.0  0.6666669847440474  0.3333329859851446  0.367515066849763  1.0000
  Y   Y1        1.0  0.3333329854322147  0.6666669831836745  0.39522311586871717  1.0000
  Y   Y2        1.0  0.6666669847440474  0.3333329859851446  0.5215383056243277  1.0000
