data_image0
_chemical_formula_structural       CClO2Sc2
_chemical_formula_sum              "C1 Cl1 O2 Sc2"
_cell_length_a       3.23702298399739
_cell_length_b       3.237022983996339
_cell_length_c       26.631797521634045
_cell_angle_alpha    90.0
_cell_angle_beta     90.0
_cell_angle_gamma    120.00000000001073

_space_group_name_H-M_alt    "P 1"
_space_group_IT_number       1

loop_
  _space_group_symop_operation_xyz
  'x, y, z'

loop_
  _atom_site_type_symbol
  _atom_site_label
  _atom_site_symmetry_multiplicity
  _atom_site_fract_x
  _atom_site_fract_y
  _atom_site_fract_z
  _atom_site_occupancy
  C   C1        1.0  0.0  0.0  0.4294835171357954  1.0000
  Cl  Cl1       1.0  0.33333298543221457  0.6666669831836742  0.6620581095703755  1.0000
  O   O1        1.0  0.33333298543221457  0.6666669831836742  0.5206406695261439  1.0000
  O   O2        1.0  0.6666669847440474  0.3333329859851446  0.3379418904296246  1.0000
  Sc  Sc1       1.0  0.33333298543221457  0.6666669831836742  0.3659286477852504  1.0000
  Sc  Sc2       1.0  0.6666669847440474  0.3333329859851446  0.4938056119115778  1.0000
