data_image0
_chemical_formula_structural       C2Hf2N3OS
_chemical_formula_sum              "C2 Hf2 N3 O1 S1"
_cell_length_a       3.3457493715124964
_cell_length_b       3.345749371505579
_cell_length_c       28.298617991685497
_cell_angle_alpha    90.0
_cell_angle_beta     90.0
_cell_angle_gamma    120.00000000006838

_space_group_name_H-M_alt    "P 1"
_space_group_IT_number       1

loop_
  _space_group_symop_operation_xyz
  'x, y, z'

loop_
  _atom_site_type_symbol
  _atom_site_label
  _atom_site_symmetry_multiplicity
  _atom_site_fract_x
  _atom_site_fract_y
  _atom_site_fract_z
  _atom_site_occupancy
  C   C1        1.0  0.3333329854322145  0.6666669831836742  0.627225990561552  1.0000
  C   C2        1.0  0.6666669847440475  0.3333329859851446  0.35999170665719377  1.0000
  Hf  Hf1       1.0  0.3333329854322145  0.6666669831836742  0.4555230826066499  1.0000
  Hf  Hf2       1.0  0.6666669847440475  0.3333329859851446  0.535598559718887  1.0000
  N   N1        1.0  0.0  0.0  0.4941025914633165  1.0000
  N   N2        1.0  0.3333329854322145  0.6666669831836742  0.5824900957428669  1.0000
  N   N3        1.0  0.6666669847440475  0.3333329859851446  0.31803673248793707  1.0000
  O   O1        1.0  0.6666669847440475  0.3333329859851446  0.4073361506829134  1.0000
  S   S1        1.0  0.3333329854322145  0.6666669831836742  0.681963267512063  1.0000
