data_image0
_chemical_formula_structural       CHN2OSc2
_chemical_formula_sum              "C1 H1 N2 O1 Sc2"
_cell_length_a       3.27749238236094
_cell_length_b       3.277492382361579
_cell_length_c       25.301508250920044
_cell_angle_alpha    90.0
_cell_angle_beta     90.0
_cell_angle_gamma    119.99999999999355

_space_group_name_H-M_alt    "P 1"
_space_group_IT_number       1

loop_
  _space_group_symop_operation_xyz
  'x, y, z'

loop_
  _atom_site_type_symbol
  _atom_site_label
  _atom_site_symmetry_multiplicity
  _atom_site_fract_x
  _atom_site_fract_y
  _atom_site_fract_z
  _atom_site_occupancy
  C   C1        1.0  0.3333329854322145  0.6666669831836742  0.5968638035500777  1.0000
  H   H1        1.0  0.6666669847440476  0.3333329859851446  0.3557100197642459  1.0000
  N   N1        1.0  0.0  0.0  0.4901883423053957  1.0000
  N   N2        1.0  0.3333329854322145  0.6666669831836742  0.644289980235754  1.0000
  O   O1        1.0  0.6666669847440476  0.3333329859851446  0.3946368922872356  1.0000
  Sc  Sc1       1.0  0.3333329854322145  0.6666669831836742  0.44290643901577614  1.0000
  Sc  Sc2       1.0  0.6666669847440476  0.3333329859851446  0.5397568073525961  1.0000
