data_image0
_chemical_formula_structural       CHf2N2O2P
_chemical_formula_sum              "C1 Hf2 N2 O2 P1"
_cell_length_a       3.2542573907822283
_cell_length_b       3.254257390766572
_cell_length_c       27.777783336944903
_cell_angle_alpha    90.0
_cell_angle_beta     90.0
_cell_angle_gamma    120.00000000015915

_space_group_name_H-M_alt    "P 1"
_space_group_IT_number       1

loop_
  _space_group_symop_operation_xyz
  'x, y, z'

loop_
  _atom_site_type_symbol
  _atom_site_label
  _atom_site_symmetry_multiplicity
  _atom_site_fract_x
  _atom_site_fract_y
  _atom_site_fract_z
  _atom_site_occupancy
  C   C1        1.0  0.3333329854322145  0.6666669831836742  0.6326447423856467  1.0000
  Hf  Hf1       1.0  0.3333329854322145  0.6666669831836742  0.44720248495517195  1.0000
  Hf  Hf2       1.0  0.6666669847440474  0.3333329859851446  0.5359097638118852  1.0000
  N   N1        1.0  0.0  0.0  0.4937424329239229  1.0000
  N   N2        1.0  0.3333329854322145  0.6666669831836742  0.5875295072216157  1.0000
  O   O1        1.0  0.3333329854322145  0.6666669831836742  0.6760000648421124  1.0000
  O   O2        1.0  0.6666669847440474  0.3333329859851446  0.3239999351578876  1.0000
  P   P1        1.0  0.6666669847440474  0.3333329859851446  0.3778080118832736  1.0000
