data_image0
_chemical_formula_structural       CCl2Y2
_chemical_formula_sum              "C1 Cl2 Y2"
_cell_length_a       3.7148103930662977
_cell_length_b       3.71481039310009
_cell_length_c       25.258951820262396
_cell_angle_alpha    90.0
_cell_angle_beta     90.0
_cell_angle_gamma    119.99999999969909

_space_group_name_H-M_alt    "P 1"
_space_group_IT_number       1

loop_
  _space_group_symop_operation_xyz
  'x, y, z'

loop_
  _atom_site_type_symbol
  _atom_site_label
  _atom_site_symmetry_multiplicity
  _atom_site_fract_x
  _atom_site_fract_y
  _atom_site_fract_z
  _atom_site_occupancy
  C   C1        1.0  5.9811510337289644e-33  8.917412263483674e-33  0.5000000267999951  1.0000
  Cl  Cl1       1.0  0.3333329854322145  0.6666669831836742  0.6223451978153729  1.0000
  Cl  Cl2       1.0  0.6666669847440473  0.3333329859851446  0.37765480218462716  1.0000
  Y   Y1        1.0  0.3333329854322145  0.6666669831836742  0.4467452779521341  1.0000
  Y   Y2        1.0  0.6666669847440473  0.3333329859851446  0.5532547216478588  1.0000
