data_image0
_chemical_formula_structural       C2N3OSY2
_chemical_formula_sum              "C2 N3 O1 S1 Y2"
_cell_length_a       3.639335712165932
_cell_length_b       3.639335712170638
_cell_length_c       29.07471541175934
_cell_angle_alpha    90.0
_cell_angle_beta     90.0
_cell_angle_gamma    119.99999999995723

_space_group_name_H-M_alt    "P 1"
_space_group_IT_number       1

loop_
  _space_group_symop_operation_xyz
  'x, y, z'

loop_
  _atom_site_type_symbol
  _atom_site_label
  _atom_site_symmetry_multiplicity
  _atom_site_fract_x
  _atom_site_fract_y
  _atom_site_fract_z
  _atom_site_occupancy
  C   C1        1.0  0.3333329854322145  0.6666669831836742  0.649010136917188  1.0000
  C   C2        1.0  0.6666669847440475  0.3333329859851446  0.350481181172158  1.0000
  N   N1        1.0  0.0  0.0  0.5147660362667132  1.0000
  N   N2        1.0  0.3333329854322145  0.6666669831836742  0.6060976031580321  1.0000
  N   N3        1.0  0.6666669847440475  0.3333329859851446  0.30954731190111423  1.0000
  O   O1        1.0  0.3333329854322145  0.6666669831836742  0.6904526880988857  1.0000
  S   S1        1.0  0.6666669847440475  0.3333329859851446  0.40819894479538577  1.0000
  Y   Y1        1.0  0.3333329854322145  0.6666669831836742  0.4679688284233774  1.0000
  Y   Y2        1.0  0.6666669847440475  0.3333329859851446  0.5578008144766146  1.0000
