data_image0
_chemical_formula_structural       CHN2Y2
_chemical_formula_sum              "C1 H1 N2 Y2"
_cell_length_a       3.5445291682580415
_cell_length_b       3.5445291682563966
_cell_length_c       24.41973914664664
_cell_angle_alpha    90.0
_cell_angle_beta     90.0
_cell_angle_gamma    120.00000000001536

_space_group_name_H-M_alt    "P 1"
_space_group_IT_number       1

loop_
  _space_group_symop_operation_xyz
  'x, y, z'

loop_
  _atom_site_type_symbol
  _atom_site_label
  _atom_site_symmetry_multiplicity
  _atom_site_fract_x
  _atom_site_fract_y
  _atom_site_fract_z
  _atom_site_occupancy
  C   C1        1.0  0.3333329854322145  0.6666669831836742  0.5823240857175342  1.0000
  H   H1        1.0  0.6666669847440476  0.3333329859851446  0.3685543054310593  1.0000
  N   N1        1.0  0.0  0.0  0.4653429387414922  1.0000
  N   N2        1.0  0.3333329854322145  0.6666669831836742  0.6314456945689407  1.0000
  Y   Y1        1.0  0.3333329854322145  0.6666669831836742  0.41033075786430123  1.0000
  Y   Y2        1.0  0.6666669847440476  0.3333329859851446  0.5196211940453618  1.0000
