data_image0
_chemical_formula_structural       CF2Y2
_chemical_formula_sum              "C1 F2 Y2"
_cell_length_a       3.5961942017977298
_cell_length_b       3.596194201802347
_cell_length_c       23.09437608716408
_cell_angle_alpha    90.0
_cell_angle_beta     90.0
_cell_angle_gamma    119.99999999995752

_space_group_name_H-M_alt    "P 1"
_space_group_IT_number       1

loop_
  _space_group_symop_operation_xyz
  'x, y, z'

loop_
  _atom_site_type_symbol
  _atom_site_label
  _atom_site_symmetry_multiplicity
  _atom_site_fract_x
  _atom_site_fract_y
  _atom_site_fract_z
  _atom_site_occupancy
  C   C1        1.0  0.0  0.0  0.5000000312774179  1.0000
  F   F1        1.0  0.33333298543221457  0.6666669831836742  0.6102947329673813  1.0000
  F   F2        1.0  0.6666669847440474  0.3333329859851445  0.3897052670326186  1.0000
  Y   Y1        1.0  0.33333298543221457  0.6666669831836742  0.4405333577776799  1.0000
  Y   Y2        1.0  0.6666669847440474  0.3333329859851445  0.5594666417554846  1.0000
