data_image0
_chemical_formula_structural       BrFNSc2
_chemical_formula_sum              "Br1 F1 N1 Sc2"
_cell_length_a       3.3775791374463315
_cell_length_b       3.3775791374433077
_cell_length_c       23.3707029469414
_cell_angle_alpha    90.0
_cell_angle_beta     90.0
_cell_angle_gamma    120.00000000002962

_space_group_name_H-M_alt    "P 1"
_space_group_IT_number       1

loop_
  _space_group_symop_operation_xyz
  'x, y, z'

loop_
  _atom_site_type_symbol
  _atom_site_label
  _atom_site_symmetry_multiplicity
  _atom_site_fract_x
  _atom_site_fract_y
  _atom_site_fract_z
  _atom_site_occupancy
  Br  Br1       1.0  0.6666669847440474  0.3333329859851446  0.385097530888683  1.0000
  F   F1        1.0  0.3333329854322145  0.6666669831836742  0.614902469111317  1.0000
  N   N1        1.0  0.0  0.0  0.5170379373771381  1.0000
  Sc  Sc1       1.0  0.3333329854322145  0.6666669831836742  0.464897879008101  1.0000
  Sc  Sc2       1.0  0.6666669847440474  0.3333329859851446  0.5666312387472803  1.0000
