data_image0
_chemical_formula_structural       CBrOSc2
_chemical_formula_sum              "C1 Br1 O1 Sc2"
_cell_length_a       3.444934637306713
_cell_length_b       3.444934637302172
_cell_length_c       29.371535808998626
_cell_angle_alpha    90.0
_cell_angle_beta     90.0
_cell_angle_gamma    120.00000000004363

_space_group_name_H-M_alt    "P 1"
_space_group_IT_number       1

loop_
  _space_group_symop_operation_xyz
  'x, y, z'

loop_
  _atom_site_type_symbol
  _atom_site_label
  _atom_site_symmetry_multiplicity
  _atom_site_fract_x
  _atom_site_fract_y
  _atom_site_fract_z
  _atom_site_occupancy
  C   C1        1.0  2.071961897657207e-32  0.0  0.513819679821986  1.0000
  Br  Br1       1.0  0.6666669847440474  0.33333298598514466  0.4121379728456384  1.0000
  O   O1        1.0  1.5120159898444623e-32  5.388282574462946e-32  0.5870296831666532  1.0000
  Sc  Sc1       1.0  0.3333329854322145  0.6666669831836742  0.4760180990743144  1.0000
  Sc  Sc2       1.0  0.6666669847440474  0.33333298598514466  0.5634087508938206  1.0000
