data_image0
_chemical_formula_structural       ClN2OY2
_chemical_formula_sum              "Cl1 N2 O1 Y2"
_cell_length_a       3.6561048414957673
_cell_length_b       3.656104841508246
_cell_length_c       24.809128863819506
_cell_angle_alpha    90.0
_cell_angle_beta     90.0
_cell_angle_gamma    119.9999999998871

_space_group_name_H-M_alt    "P 1"
_space_group_IT_number       1

loop_
  _space_group_symop_operation_xyz
  'x, y, z'

loop_
  _atom_site_type_symbol
  _atom_site_label
  _atom_site_symmetry_multiplicity
  _atom_site_fract_x
  _atom_site_fract_y
  _atom_site_fract_z
  _atom_site_occupancy
  Cl  Cl1       1.0  0.6666669847440473  0.3333329859851446  0.3627696905200564  1.0000
  N   N1        1.0  0.0  0.0  0.4792535772291396  1.0000
  N   N2        1.0  0.33333298543221435  0.6666669831836742  0.5829038515454379  1.0000
  O   O1        1.0  0.33333298543221435  0.6666669831836742  0.6372303094799435  1.0000
  Y   Y1        1.0  0.33333298543221435  0.6666669831836742  0.4348913855612714  1.0000
  Y   Y2        1.0  0.6666669847440473  0.3333329859851446  0.5483209665889391  1.0000
