data_image0
_chemical_formula_structural       C2N2O2Sc2
_chemical_formula_sum              "C2 N2 O2 Sc2"
_cell_length_a       3.372036921047836
_cell_length_b       3.372036921048674
_cell_length_c       26.80660217648769
_cell_angle_alpha    90.0
_cell_angle_beta     90.0
_cell_angle_gamma    119.99999999999177

_space_group_name_H-M_alt    "P 1"
_space_group_IT_number       1

loop_
  _space_group_symop_operation_xyz
  'x, y, z'

loop_
  _atom_site_type_symbol
  _atom_site_label
  _atom_site_symmetry_multiplicity
  _atom_site_fract_x
  _atom_site_fract_y
  _atom_site_fract_z
  _atom_site_occupancy
  C   C1        1.0  0.0  0.0  0.5219553877637944  1.0000
  C   C2        1.0  0.6666669847440473  0.3333329859851446  0.38007632002494035  1.0000
  N   N1        1.0  0.33333298543221446  0.6666669831836742  0.6162196687534021  1.0000
  N   N2        1.0  0.6666669847440473  0.3333329859851446  0.33573818646415327  1.0000
  O   O1        1.0  0.33333298543221446  0.6666669831836742  0.6642618135358466  1.0000
  O   O2        1.0  0.6666669847440473  0.3333329859851446  0.4299310855041503  1.0000
  Sc  Sc1       1.0  0.33333298543221446  0.6666669831836742  0.47567386513881976  1.0000
  Sc  Sc2       1.0  0.6666669847440473  0.3333329859851446  0.5696259169269026  1.0000
