data_image0
_chemical_formula_structural       C3N2OSTi2
_chemical_formula_sum              "C3 N2 O1 S1 Ti2"
_cell_length_a       3.2712391469844677
_cell_length_b       3.2712391469795565
_cell_length_c       28.388145506719674
_cell_angle_alpha    90.0
_cell_angle_beta     90.0
_cell_angle_gamma    120.00000000004965

_space_group_name_H-M_alt    "P 1"
_space_group_IT_number       1

loop_
  _space_group_symop_operation_xyz
  'x, y, z'

loop_
  _atom_site_type_symbol
  _atom_site_label
  _atom_site_symmetry_multiplicity
  _atom_site_fract_x
  _atom_site_fract_y
  _atom_site_fract_z
  _atom_site_occupancy
  C   C1        1.0  0.0  0.0  0.5122658699101961  1.0000
  C   C2        1.0  0.3333329854322145  0.6666669831836742  0.6405557559600847  1.0000
  C   C3        1.0  0.6666669847440474  0.3333329859851447  0.3589868147755211  1.0000
  N   N1        1.0  0.3333329854322145  0.6666669831836742  0.5965969756426498  1.0000
  N   N2        1.0  0.6666669847440474  0.3333329859851447  0.3170337420550995  1.0000
  O   O1        1.0  0.3333329854322145  0.6666669831836742  0.6829662579449005  1.0000
  S   S1        1.0  0.6666669847440474  0.3333329859851447  0.4180452274627257  1.0000
  Ti  Ti1       1.0  0.3333329854322145  0.6666669831836742  0.47312760945642  1.0000
  Ti  Ti2       1.0  0.6666669847440474  0.3333329859851447  0.5498406089323963  1.0000
