data_image0
_chemical_formula_structural       HHf2N2O2
_chemical_formula_sum              "H1 Hf2 N2 O2"
_cell_length_a       3.2799023846313857
_cell_length_b       3.279902384623726
_cell_length_c       25.228733325491962
_cell_angle_alpha    90.0
_cell_angle_beta     90.0
_cell_angle_gamma    120.00000000007726

_space_group_name_H-M_alt    "P 1"
_space_group_IT_number       1

loop_
  _space_group_symop_operation_xyz
  'x, y, z'

loop_
  _atom_site_type_symbol
  _atom_site_label
  _atom_site_symmetry_multiplicity
  _atom_site_fract_x
  _atom_site_fract_y
  _atom_site_fract_z
  _atom_site_occupancy
  H   H1        1.0  0.6666669847440476  0.3333329859851447  0.356736102597196  1.0000
  Hf  Hf1       1.0  0.3333329854322146  0.6666669831836742  0.44838066949035027  1.0000
  Hf  Hf2       1.0  0.6666669847440476  0.3333329859851447  0.5466452725457824  1.0000
  N   N1        1.0  0.0  0.0  0.4932609876105887  1.0000
  N   N2        1.0  0.3333329854322146  0.6666669831836742  0.5903146412148942  1.0000
  O   O1        1.0  0.3333329854322146  0.6666669831836742  0.643263897402804  1.0000
  O   O2        1.0  0.6666669847440476  0.3333329859851447  0.3961828466213311  1.0000
