data_image0
_chemical_formula_structural       CHO2Ti2
_chemical_formula_sum              "C1 H1 O2 Ti2"
_cell_length_a       3.0838639986420544
_cell_length_b       3.083863998642413
_cell_length_c       23.631510925600853
_cell_angle_alpha    90.0
_cell_angle_beta     90.0
_cell_angle_gamma    119.99999999999618

_space_group_name_H-M_alt    "P 1"
_space_group_IT_number       1

loop_
  _space_group_symop_operation_xyz
  'x, y, z'

loop_
  _atom_site_type_symbol
  _atom_site_label
  _atom_site_symmetry_multiplicity
  _atom_site_fract_x
  _atom_site_fract_y
  _atom_site_fract_z
  _atom_site_occupancy
  C   C1        1.0  0.0  0.0  0.5241046065636529  1.0000
  H   H1        1.0  0.6666669847440474  0.3333329859851446  0.3808474214084204  1.0000
  O   O1        1.0  0.3333329854322145  0.6666669831836742  0.6191525785915795  1.0000
  O   O2        1.0  0.6666669847440474  0.3333329859851446  0.4225613483227088  1.0000
  Ti  Ti1       1.0  0.3333329854322145  0.6666669831836742  0.47592007262290836  1.0000
  Ti  Ti2       1.0  0.6666669847440474  0.3333329859851446  0.5803321125717555  1.0000
