data_image0
_chemical_formula_structural       CClN2OSc2
_chemical_formula_sum              "C1 Cl1 N2 O1 Sc2"
_cell_length_a       3.3333075608364187
_cell_length_b       3.3333075608360625
_cell_length_c       25.85969316685998
_cell_angle_alpha    90.0
_cell_angle_beta     90.0
_cell_angle_gamma    120.00000000000352

_space_group_name_H-M_alt    "P 1"
_space_group_IT_number       1

loop_
  _space_group_symop_operation_xyz
  'x, y, z'

loop_
  _atom_site_type_symbol
  _atom_site_label
  _atom_site_symmetry_multiplicity
  _atom_site_fract_x
  _atom_site_fract_y
  _atom_site_fract_z
  _atom_site_occupancy
  C   C1        1.0  0.6666669847440473  0.3333329859851446  0.39396851996446614  1.0000
  Cl  Cl1       1.0  0.3333329854322145  0.6666669831836741  0.651968028316214  1.0000
  N   N1        1.0  0.0  0.0  0.539416965013019  1.0000
  N   N2        1.0  0.6666669847440473  0.3333329859851446  0.34803197168378563  1.0000
  O   O1        1.0  0.6666669847440473  0.3333329859851446  0.44567015889709033  1.0000
  Sc  Sc1       1.0  0.3333329854322145  0.6666669831836741  0.4938040641472501  1.0000
  Sc  Sc2       1.0  0.6666669847440473  0.3333329859851446  0.5864383173031934  1.0000
