data_image0
_chemical_formula_structural       CFN2OZr2
_chemical_formula_sum              "C1 F1 N2 O1 Zr2"
_cell_length_a       3.3914552414438317
_cell_length_b       3.391455241442212
_cell_length_c       25.482405889882497
_cell_angle_alpha    90.0
_cell_angle_beta     90.0
_cell_angle_gamma    120.00000000001579

_space_group_name_H-M_alt    "P 1"
_space_group_IT_number       1

loop_
  _space_group_symop_operation_xyz
  'x, y, z'

loop_
  _atom_site_type_symbol
  _atom_site_label
  _atom_site_symmetry_multiplicity
  _atom_site_fract_x
  _atom_site_fract_y
  _atom_site_fract_z
  _atom_site_occupancy
  C   C1        1.0  0.6666669847440474  0.3333329859851446  0.3998050873365705  1.0000
  F   F1        1.0  0.3333329854322145  0.6666669831836742  0.6468151383000555  1.0000
  N   N1        1.0  0.0  0.0  0.5517221747306732  1.0000
  N   N2        1.0  0.6666669847440474  0.3333329859851446  0.35318486169994456  1.0000
  O   O1        1.0  0.6666669847440474  0.3333329859851446  0.4522266578875573  1.0000
  Zr  Zr1       1.0  0.3333329854322145  0.6666669831836742  0.5060406605136256  1.0000
  Zr  Zr2       1.0  0.6666669847440474  0.3333329859851446  0.5959380252688209  1.0000
