data_image0
_chemical_formula_structural       CN2OTi2
_chemical_formula_sum              "C1 N2 O1 Ti2"
_cell_length_a       3.0865716402284398
_cell_length_b       3.0865716402500634
_cell_length_c       23.92421057216615
_cell_angle_alpha    90.0
_cell_angle_beta     90.0
_cell_angle_gamma    119.99999999976826

_space_group_name_H-M_alt    "P 1"
_space_group_IT_number       1

loop_
  _space_group_symop_operation_xyz
  'x, y, z'

loop_
  _atom_site_type_symbol
  _atom_site_label
  _atom_site_symmetry_multiplicity
  _atom_site_fract_x
  _atom_site_fract_y
  _atom_site_fract_z
  _atom_site_occupancy
  C   C1        1.0  0.33333298543221446  0.6666669831836742  0.5734189873912218  1.0000
  N   N1        1.0  0.0  0.0  0.4662622262623121  1.0000
  N   N2        1.0  0.33333298543221446  0.6666669831836742  0.6238120387357415  1.0000
  O   O1        1.0  0.6666669847440473  0.3333329859851446  0.37618796126425846  1.0000
  Ti  Ti1       1.0  0.33333298543221446  0.6666669831836742  0.4141270641188164  1.0000
  Ti  Ti2       1.0  0.6666669847440473  0.3333329859851446  0.5148694011796137  1.0000
