data_image0
_chemical_formula_structural       BrCClSc2
_chemical_formula_sum              "Br1 C1 Cl1 Sc2"
_cell_length_a       3.48995379439077
_cell_length_b       3.489953794390856
_cell_length_c       23.957836716066844
_cell_angle_alpha    90.0
_cell_angle_beta     90.0
_cell_angle_gamma    119.99999999999918

_space_group_name_H-M_alt    "P 1"
_space_group_IT_number       1

loop_
  _space_group_symop_operation_xyz
  'x, y, z'

loop_
  _atom_site_type_symbol
  _atom_site_label
  _atom_site_symmetry_multiplicity
  _atom_site_fract_x
  _atom_site_fract_y
  _atom_site_fract_z
  _atom_site_occupancy
  Br  Br1       1.0  0.6666669847440476  0.3333329859851446  0.375659960732779  1.0000
  C   C1        1.0  0.0  0.0  0.5038314368079441  1.0000
  Cl  Cl1       1.0  0.3333329854322145  0.6666669831836742  0.624340039267221  1.0000
  Sc  Sc1       1.0  0.3333329854322145  0.6666669831836742  0.4530043732287903  1.0000
  Sc  Sc2       1.0  0.6666669847440476  0.3333329859851446  0.5550926304921059  1.0000
