data_image0
_chemical_formula_structural       H2NO2Zr2
_chemical_formula_sum              "H2 N1 O2 Zr2"
_cell_length_a       3.305395683627958
_cell_length_b       3.305395683624565
_cell_length_c       25.08273197467527
_cell_angle_alpha    90.0
_cell_angle_beta     90.0
_cell_angle_gamma    120.00000000003396

_space_group_name_H-M_alt    "P 1"
_space_group_IT_number       1

loop_
  _space_group_symop_operation_xyz
  'x, y, z'

loop_
  _atom_site_type_symbol
  _atom_site_label
  _atom_site_symmetry_multiplicity
  _atom_site_fract_x
  _atom_site_fract_y
  _atom_site_fract_z
  _atom_site_occupancy
  H   H1        1.0  0.3333329854322146  0.6666669831836742  0.6411874109611811  1.0000
  H   H2        1.0  0.6666669847440473  0.3333329859851446  0.3588125890388191  1.0000
  N   N1        1.0  0.0  0.0  0.5000000340880147  1.0000
  O   O1        1.0  0.3333329854322146  0.6666669831836742  0.6016678524863944  1.0000
  O   O2        1.0  0.6666669847440473  0.3333329859851446  0.3983321475136148  1.0000
  Zr  Zr1       1.0  0.3333329854322146  0.6666669831836742  0.4518694524252603  1.0000
  Zr  Zr2       1.0  0.6666669847440473  0.3333329859851446  0.5481305470659633  1.0000
