data_image0
_chemical_formula_structural       ClN2O2Sc2
_chemical_formula_sum              "Cl1 N2 O2 Sc2"
_cell_length_a       3.287586902830964
_cell_length_b       3.2875869028309936
_cell_length_c       27.6777238546306
_cell_angle_alpha    90.0
_cell_angle_beta     90.0
_cell_angle_gamma    119.99999999999972

_space_group_name_H-M_alt    "P 1"
_space_group_IT_number       1

loop_
  _space_group_symop_operation_xyz
  'x, y, z'

loop_
  _atom_site_type_symbol
  _atom_site_label
  _atom_site_symmetry_multiplicity
  _atom_site_fract_x
  _atom_site_fract_y
  _atom_site_fract_z
  _atom_site_occupancy
  Cl  Cl1       1.0  0.6666669847440474  0.3333329859851446  0.325171247725064  1.0000
  N   N1        1.0  0.0  0.0  0.5418546219626361  1.0000
  N   N2        1.0  0.33333298543221446  0.6666669831836742  0.628701624080182  1.0000
  O   O1        1.0  0.33333298543221446  0.6666669831836742  0.674828752274936  1.0000
  O   O2        1.0  0.6666669847440474  0.3333329859851446  0.45934896194818886  1.0000
  Sc  Sc1       1.0  0.33333298543221446  0.6666669831836742  0.4827563596356785  1.0000
  Sc  Sc2       1.0  0.6666669847440474  0.3333329859851446  0.5778499880530304  1.0000
