data_image0
_chemical_formula_structural       BrCClZr2
_chemical_formula_sum              "Br1 C1 Cl1 Zr2"
_cell_length_a       3.4875323479202995
_cell_length_b       3.4875323479159923
_cell_length_c       24.133919264120586
_cell_angle_alpha    90.0
_cell_angle_beta     90.0
_cell_angle_gamma    120.00000000004086

_space_group_name_H-M_alt    "P 1"
_space_group_IT_number       1

loop_
  _space_group_symop_operation_xyz
  'x, y, z'

loop_
  _atom_site_type_symbol
  _atom_site_label
  _atom_site_symmetry_multiplicity
  _atom_site_fract_x
  _atom_site_fract_y
  _atom_site_fract_z
  _atom_site_occupancy
  Br  Br1       1.0  0.6666669847440474  0.3333329859851446  0.3729191227294822  1.0000
  C   C1        1.0  0.0  0.0  0.5039066837608768  1.0000
  Cl  Cl1       1.0  0.3333329854322146  0.6666669831836743  0.6270808772705179  1.0000
  Zr  Zr1       1.0  0.3333329854322146  0.6666669831836743  0.4544196672358854  1.0000
  Zr  Zr2       1.0  0.6666669847440474  0.3333329859851446  0.5530826353560516  1.0000
