data_image0
_chemical_formula_structural       C2N3OSTi2
_chemical_formula_sum              "C2 N3 O1 S1 Ti2"
_cell_length_a       3.206947203602072
_cell_length_b       3.2069472035977804
_cell_length_c       27.971146991448286
_cell_angle_alpha    90.0
_cell_angle_beta     90.0
_cell_angle_gamma    120.00000000004427

_space_group_name_H-M_alt    "P 1"
_space_group_IT_number       1

loop_
  _space_group_symop_operation_xyz
  'x, y, z'

loop_
  _atom_site_type_symbol
  _atom_site_label
  _atom_site_symmetry_multiplicity
  _atom_site_fract_x
  _atom_site_fract_y
  _atom_site_fract_z
  _atom_site_occupancy
  C   C1        1.0  0.3333329854322145  0.6666669831836742  0.62285090987893  1.0000
  C   C2        1.0  0.6666669847440475  0.3333329859851446  0.3642213922082154  1.0000
  N   N1        1.0  0.0  0.0  0.4938803743480493  1.0000
  N   N2        1.0  0.3333329854322145  0.6666669831836742  0.5780327697549235  1.0000
  N   N3        1.0  0.6666669847440475  0.3333329859851446  0.3217601338533455  1.0000
  O   O1        1.0  0.6666669847440475  0.3333329859851446  0.4119433498471274  1.0000
  S   S1        1.0  0.3333329854322145  0.6666669831836742  0.6782398661466545  1.0000
  Ti  Ti1       1.0  0.3333329854322145  0.6666669831836742  0.4577595696823892  1.0000
  Ti  Ti2       1.0  0.6666669847440475  0.3333329859851446  0.5323686965338377  1.0000
