data_image0
_chemical_formula_structural       CO2La2
_chemical_formula_sum              "C1 O2 La2"
_cell_length_a       3.9985054555577926
_cell_length_b       3.9985054555582695
_cell_length_c       21.801844741439155
_cell_angle_alpha    90.0
_cell_angle_beta     90.0
_cell_angle_gamma    119.99999999999608

_space_group_name_H-M_alt    "P 1"
_space_group_IT_number       1

loop_
  _space_group_symop_operation_xyz
  'x, y, z'

loop_
  _atom_site_type_symbol
  _atom_site_label
  _atom_site_symmetry_multiplicity
  _atom_site_fract_x
  _atom_site_fract_y
  _atom_site_fract_z
  _atom_site_occupancy
  C   C1        1.0  7.677593269448244e-32  6.117741377944654e-32  0.48574499692105255  1.0000
  O   O1        1.0  0.3333329854322145  0.6666669831836742  0.5960584348425164  1.0000
  O   O2        1.0  2.285850289376355e-32  2.691312178946591e-32  0.4117919268023415  1.0000
  La  La1       1.0  0.3333329854322145  0.6666669831836742  0.4356943650669254  1.0000
  La  La2       1.0  0.6666669847440474  0.3333329859851446  0.570710302767145  1.0000
