data_image0
_chemical_formula_structural       C2N3SSc2
_chemical_formula_sum              "C2 N3 S1 Sc2"
_cell_length_a       3.4200306451029903
_cell_length_b       3.420030645085966
_cell_length_c       27.465026739849982
_cell_angle_alpha    90.0
_cell_angle_beta     90.0
_cell_angle_gamma    120.00000000016466

_space_group_name_H-M_alt    "P 1"
_space_group_IT_number       1

loop_
  _space_group_symop_operation_xyz
  'x, y, z'

loop_
  _atom_site_type_symbol
  _atom_site_label
  _atom_site_symmetry_multiplicity
  _atom_site_fract_x
  _atom_site_fract_y
  _atom_site_fract_z
  _atom_site_occupancy
  C   C1        1.0  0.3333329854322145  0.6666669831836742  0.6286182070110939  1.0000
  C   C2        1.0  0.6666669847440474  0.3333329859851446  0.3710322400459247  1.0000
  N   N1        1.0  0.0  0.0  0.5347464680062923  1.0000
  N   N2        1.0  0.3333329854322145  0.6666669831836742  0.6723105320359443  1.0000
  N   N3        1.0  0.6666669847440474  0.3333329859851446  0.3276894679640556  1.0000
  S   S1        1.0  0.6666669847440474  0.3333329859851446  0.4320124363124232  1.0000
  Sc  Sc1       1.0  0.3333329854322145  0.6666669831836742  0.4911413599430505  1.0000
  Sc  Sc2       1.0  0.6666669847440474  0.3333329859851446  0.5775830618305153  1.0000
