data_image0
_chemical_formula_structural       CClN2OSSc2
_chemical_formula_sum              "C1 Cl1 N2 O1 S1 Sc2"
_cell_length_a       3.365102807608464
_cell_length_b       3.3651028076080682
_cell_length_c       29.294663550970743
_cell_angle_alpha    90.0
_cell_angle_beta     90.0
_cell_angle_gamma    120.00000000000388

_space_group_name_H-M_alt    "P 1"
_space_group_IT_number       1

loop_
  _space_group_symop_operation_xyz
  'x, y, z'

loop_
  _atom_site_type_symbol
  _atom_site_label
  _atom_site_symmetry_multiplicity
  _atom_site_fract_x
  _atom_site_fract_y
  _atom_site_fract_z
  _atom_site_occupancy
  C   C1        1.0  0.6666669847440473  0.3333329859851446  0.3479128618004834  1.0000
  Cl  Cl1       1.0  0.3333329854322144  0.6666669831836742  0.6927768095257143  1.0000
  N   N1        1.0  0.0  0.0  0.4962422387067564  1.0000
  N   N2        1.0  0.6666669847440473  0.3333329859851446  0.3072231904742857  1.0000
  O   O1        1.0  0.3333329854322144  0.6666669831836742  0.572008387394312  1.0000
  S   S1        1.0  0.6666669847440473  0.3333329859851446  0.4046922162054648  1.0000
  Sc  Sc1       1.0  0.3333329854322144  0.6666669831836742  0.4643124181147231  1.0000
  Sc  Sc2       1.0  0.6666669847440473  0.3333329859851446  0.5526518817767929  1.0000
