data_image0
_chemical_formula_structural       BrCOTi2
_chemical_formula_sum              "Br1 C1 O1 Ti2"
_cell_length_a       3.171498519989631
_cell_length_b       3.171498519988168
_cell_length_c       23.164689521271423
_cell_angle_alpha    90.0
_cell_angle_beta     90.0
_cell_angle_gamma    120.00000000001526

_space_group_name_H-M_alt    "P 1"
_space_group_IT_number       1

loop_
  _space_group_symop_operation_xyz
  'x, y, z'

loop_
  _atom_site_type_symbol
  _atom_site_label
  _atom_site_symmetry_multiplicity
  _atom_site_fract_x
  _atom_site_fract_y
  _atom_site_fract_z
  _atom_site_occupancy
  Br  Br1       1.0  0.6666669847440474  0.3333329859851446  0.38852236684353464  1.0000
  C   C1        1.0  0.0  0.0  0.5161219098730303  1.0000
  O   O1        1.0  0.3333329854322146  0.6666669831836742  0.6114776331564653  1.0000
  Ti  Ti1       1.0  0.3333329854322146  0.6666669831836742  0.46928502478377515  1.0000
  Ti  Ti2       1.0  0.6666669847440474  0.3333329859851446  0.5739355737922613  1.0000
