data_image0
_chemical_formula_structural       C2N3SSc2
_chemical_formula_sum              "C2 N3 S1 Sc2"
_cell_length_a       3.3432179459700544
_cell_length_b       3.343217945951949
_cell_length_c       27.134777894021095
_cell_angle_alpha    90.0
_cell_angle_beta     90.0
_cell_angle_gamma    120.00000000017914

_space_group_name_H-M_alt    "P 1"
_space_group_IT_number       1

loop_
  _space_group_symop_operation_xyz
  'x, y, z'

loop_
  _atom_site_type_symbol
  _atom_site_label
  _atom_site_symmetry_multiplicity
  _atom_site_fract_x
  _atom_site_fract_y
  _atom_site_fract_z
  _atom_site_occupancy
  C   C1        1.0  0.3333329854322145  0.6666669831836742  0.6240998732768147  1.0000
  C   C2        1.0  0.6666669847440475  0.3333329859851446  0.3888787472575685  1.0000
  N   N1        1.0  0.0  0.0  0.5269056526506494  1.0000
  N   N2        1.0  0.3333329854322145  0.6666669831836742  0.6683223266042259  1.0000
  N   N3        1.0  0.6666669847440475  0.3333329859851446  0.4350328312529149  1.0000
  S   S1        1.0  0.6666669847440475  0.3333329859851446  0.33167767339577414  1.0000
  Sc  Sc1       1.0  0.3333329854322145  0.6666669831836742  0.4818535525500188  1.0000
  Sc  Sc2       1.0  0.6666669847440475  0.3333329859851446  0.5715255771697834  1.0000
