data_image0
_chemical_formula_structural       ClNOZr2
_chemical_formula_sum              "Cl1 N1 O1 Zr2"
_cell_length_a       3.307382925884397
_cell_length_b       3.307382925880316
_cell_length_c       23.4227567499421
_cell_angle_alpha    90.0
_cell_angle_beta     90.0
_cell_angle_gamma    120.00000000004083

_space_group_name_H-M_alt    "P 1"
_space_group_IT_number       1

loop_
  _space_group_symop_operation_xyz
  'x, y, z'

loop_
  _atom_site_type_symbol
  _atom_site_label
  _atom_site_symmetry_multiplicity
  _atom_site_fract_x
  _atom_site_fract_y
  _atom_site_fract_z
  _atom_site_occupancy
  Cl  Cl1       1.0  0.6666669847440474  0.3333329859851446  0.3842417054526363  1.0000
  N   N1        1.0  0.0  0.0  0.5191221631376552  1.0000
  O   O1        1.0  0.3333329854322145  0.6666669831836743  0.6157582945473639  1.0000
  Zr  Zr1       1.0  0.3333329854322145  0.6666669831836743  0.4624707747997757  1.0000
  Zr  Zr2       1.0  0.6666669847440474  0.3333329859851446  0.5741815225735125  1.0000
