data_image0
_chemical_formula_structural       CCl2Ti2
_chemical_formula_sum              "C1 Cl2 Ti2"
_cell_length_a       3.2421348702260393
_cell_length_b       3.2421348702180297
_cell_length_c       23.53467543357617
_cell_angle_alpha    90.0
_cell_angle_beta     90.0
_cell_angle_gamma    120.00000000008171

_space_group_name_H-M_alt    "P 1"
_space_group_IT_number       1

loop_
  _space_group_symop_operation_xyz
  'x, y, z'

loop_
  _atom_site_type_symbol
  _atom_site_label
  _atom_site_symmetry_multiplicity
  _atom_site_fract_x
  _atom_site_fract_y
  _atom_site_fract_z
  _atom_site_occupancy
  C   C1        1.0  0.0  0.0  0.50000003776183  1.0000
  Cl  Cl1       1.0  0.3333329854322145  0.6666669831836742  0.6175855483793932  1.0000
  Cl  Cl2       1.0  0.6666669847440473  0.3333329859851446  0.38241445162060694  1.0000
  Ti  Ti1       1.0  0.3333329854322145  0.6666669831836742  0.45365936983404737  1.0000
  Ti  Ti2       1.0  0.6666669847440473  0.3333329859851446  0.5463406296023332  1.0000
