data_image0
_chemical_formula_structural       CFOSc2
_chemical_formula_sum              "C1 F1 O1 Sc2"
_cell_length_a       3.3261952045621554
_cell_length_b       3.3261952045567793
_cell_length_c       22.7613709711732
_cell_angle_alpha    90.0
_cell_angle_beta     90.0
_cell_angle_gamma    120.00000000005348

_space_group_name_H-M_alt    "P 1"
_space_group_IT_number       1

loop_
  _space_group_symop_operation_xyz
  'x, y, z'

loop_
  _atom_site_type_symbol
  _atom_site_label
  _atom_site_symmetry_multiplicity
  _atom_site_fract_x
  _atom_site_fract_y
  _atom_site_fract_z
  _atom_site_occupancy
  C   C1        1.0  0.0  0.0  0.4994681794871598  1.0000
  F   F1        1.0  0.6666669847440473  0.33333298598514444  0.3954067622463651  1.0000
  O   O1        1.0  0.3333329854322145  0.6666669831836742  0.604593237753635  1.0000
  Sc  Sc1       1.0  0.3333329854322145  0.6666669831836742  0.4461102090829338  1.0000
  Sc  Sc2       1.0  0.6666669847440473  0.33333298598514444  0.5740380642095626  1.0000
