data_image0
_chemical_formula_structural       BrHNY2
_chemical_formula_sum              "Br1 H1 N1 Y2"
_cell_length_a       3.5897059442258343
_cell_length_b       3.5897059442320374
_cell_length_c       23.620723181452576
_cell_angle_alpha    90.0
_cell_angle_beta     90.0
_cell_angle_gamma    119.99999999994284

_space_group_name_H-M_alt    "P 1"
_space_group_IT_number       1

loop_
  _space_group_symop_operation_xyz
  'x, y, z'

loop_
  _atom_site_type_symbol
  _atom_site_label
  _atom_site_symmetry_multiplicity
  _atom_site_fract_x
  _atom_site_fract_y
  _atom_site_fract_z
  _atom_site_occupancy
  Br  Br1       1.0  0.3333329854322145  0.6666669831836742  0.6189786429965463  1.0000
  H   H1        1.0  0.6666669847440474  0.3333329859851446  0.38102135700345396  1.0000
  N   N1        1.0  0.0  0.0  0.4803402271659563  1.0000
  Y   Y1        1.0  0.3333329854322145  0.6666669831836742  0.4232720805723581  1.0000
  Y   Y2        1.0  0.6666669847440474  0.3333329859851446  0.534708621184229  1.0000
