data_image0
_chemical_formula_structural       CHO2Y2
_chemical_formula_sum              "C1 H1 O2 Y2"
_cell_length_a       3.574010288498051
_cell_length_b       3.574010288505829
_cell_length_c       24.163339498376335
_cell_angle_alpha    90.0
_cell_angle_beta     90.0
_cell_angle_gamma    119.99999999992801

_space_group_name_H-M_alt    "P 1"
_space_group_IT_number       1

loop_
  _space_group_symop_operation_xyz
  'x, y, z'

loop_
  _atom_site_type_symbol
  _atom_site_label
  _atom_site_symmetry_multiplicity
  _atom_site_fract_x
  _atom_site_fract_y
  _atom_site_fract_z
  _atom_site_occupancy
  C   C1        1.0  0.0  0.0  0.5216972562604573  1.0000
  H   H1        1.0  0.6666669847440472  0.3333329859851445  0.3724650725784305  1.0000
  O   O1        1.0  0.33333298543221457  0.6666669831836743  0.6275349274215695  1.0000
  O   O2        1.0  0.6666669847440472  0.3333329859851445  0.41325107667763494  1.0000
  Y   Y1        1.0  0.33333298543221457  0.6666669831836743  0.4682255860400587  1.0000
  Y   Y2        1.0  0.6666669847440472  0.3333329859851445  0.5974933191531903  1.0000
