data_image0
_chemical_formula_structural       CHN2O2Y2
_chemical_formula_sum              "C1 H1 N2 O2 Y2"
_cell_length_a       3.528009960233913
_cell_length_b       3.528009960230179
_cell_length_c       26.810616827267182
_cell_angle_alpha    90.0
_cell_angle_beta     90.0
_cell_angle_gamma    120.00000000003503

_space_group_name_H-M_alt    "P 1"
_space_group_IT_number       1

loop_
  _space_group_symop_operation_xyz
  'x, y, z'

loop_
  _atom_site_type_symbol
  _atom_site_label
  _atom_site_symmetry_multiplicity
  _atom_site_fract_x
  _atom_site_fract_y
  _atom_site_fract_z
  _atom_site_occupancy
  C   C1        1.0  0.6666669847440474  0.3333329859851446  0.3800141301189017  1.0000
  H   H1        1.0  0.3333329854322145  0.6666669831836741  0.6643120873352404  1.0000
  N   N1        1.0  0.0  0.0  0.5288117109966932  1.0000
  N   N2        1.0  0.6666669847440474  0.3333329859851446  0.3356879126647597  1.0000
  O   O1        1.0  0.3333329854322145  0.6666669831836741  0.6275364819188926  1.0000
  O   O2        1.0  0.6666669847440474  0.3333329859851446  0.4297367463771976  1.0000
  Y   Y1        1.0  0.3333329854322145  0.6666669831836741  0.4798048404054818  1.0000
  Y   Y2        1.0  0.6666669847440474  0.3333329859851446  0.5786994100326872  1.0000
