data_image0
_chemical_formula_structural       Cl2NO2Sc2
_chemical_formula_sum              "Cl2 N1 O2 Sc2"
_cell_length_a       3.2301596425826173
_cell_length_b       3.230159642562376
_cell_length_c       30.73826745501197
_cell_angle_alpha    90.0
_cell_angle_beta     90.0
_cell_angle_gamma    120.0000000002073

_space_group_name_H-M_alt    "P 1"
_space_group_IT_number       1

loop_
  _space_group_symop_operation_xyz
  'x, y, z'

loop_
  _atom_site_type_symbol
  _atom_site_label
  _atom_site_symmetry_multiplicity
  _atom_site_fract_x
  _atom_site_fract_y
  _atom_site_fract_z
  _atom_site_occupancy
  Cl  Cl1       1.0  0.3333329854322145  0.6666669831836742  0.707205358494188  1.0000
  Cl  Cl2       1.0  0.6666669847440474  0.33333298598514477  0.292794641505812  1.0000
  N   N1        1.0  0.0  0.0  0.500000029127023  1.0000
  O   O1        1.0  0.3333329854322145  0.6666669831836742  0.572096228796968  1.0000
  O   O2        1.0  0.6666669847440474  0.33333298598514477  0.4279037712030396  1.0000
  Sc  Sc1       1.0  0.3333329854322145  0.6666669831836742  0.4534789286346258  1.0000
  Sc  Sc2       1.0  0.6666669847440474  0.33333298598514477  0.5465210709306425  1.0000
