data_image0
_chemical_formula_structural       CHN2SZr2
_chemical_formula_sum              "C1 H1 N2 S1 Zr2"
_cell_length_a       3.365662969571735
_cell_length_b       3.365662969571738
_cell_length_c       25.570991225774595
_cell_angle_alpha    90.0
_cell_angle_beta     90.0
_cell_angle_gamma    119.99999999999997

_space_group_name_H-M_alt    "P 1"
_space_group_IT_number       1

loop_
  _space_group_symop_operation_xyz
  'x, y, z'

loop_
  _atom_site_type_symbol
  _atom_site_label
  _atom_site_symmetry_multiplicity
  _atom_site_fract_x
  _atom_site_fract_y
  _atom_site_fract_z
  _atom_site_occupancy
  C   C1        1.0  0.33333298543221446  0.6666669831836743  0.5873254587746236  1.0000
  H   H1        1.0  0.6666669847440473  0.33333298598514477  0.35196132682288594  1.0000
  N   N1        1.0  0.0  0.0  0.437490979960094  1.0000
  N   N2        1.0  0.33333298543221446  0.6666669831836743  0.5382548210675192  1.0000
  S   S1        1.0  0.33333298543221446  0.6666669831836743  0.6480386731771143  1.0000
  Zr  Zr1       1.0  0.33333298543221446  0.6666669831836743  0.3914016629400576  1.0000
  Zr  Zr2       1.0  0.6666669847440473  0.33333298598514477  0.48370051253694923  1.0000
