data_image0
_chemical_formula_structural       CHOZr2
_chemical_formula_sum              "C1 H1 O1 Zr2"
_cell_length_a       3.3102417115768605
_cell_length_b       3.3102417115738794
_cell_length_c       22.694770440967705
_cell_angle_alpha    90.0
_cell_angle_beta     90.0
_cell_angle_gamma    120.00000000002979

_space_group_name_H-M_alt    "P 1"
_space_group_IT_number       1

loop_
  _space_group_symop_operation_xyz
  'x, y, z'

loop_
  _atom_site_type_symbol
  _atom_site_label
  _atom_site_symmetry_multiplicity
  _atom_site_fract_x
  _atom_site_fract_y
  _atom_site_fract_z
  _atom_site_occupancy
  C   C1        1.0  0.0  0.0  0.4977801558109547  1.0000
  H   H1        1.0  0.6666669847440474  0.33333298598514444  0.3965671308908045  1.0000
  O   O1        1.0  0.3333329854322145  0.6666669831836742  0.6034328691091955  1.0000
  Zr  Zr1       1.0  0.3333329854322145  0.6666669831836742  0.4420942815873777  1.0000
  Zr  Zr2       1.0  0.6666669847440474  0.33333298598514444  0.560759058058845  1.0000
