data_image0
_chemical_formula_structural       CClHSc2
_chemical_formula_sum              "C1 Cl1 H1 Sc2"
_cell_length_a       3.3787679578041336
_cell_length_b       3.378767957800109
_cell_length_c       23.17564532114826
_cell_angle_alpha    90.0
_cell_angle_beta     90.0
_cell_angle_gamma    120.0000000000394

_space_group_name_H-M_alt    "P 1"
_space_group_IT_number       1

loop_
  _space_group_symop_operation_xyz
  'x, y, z'

loop_
  _atom_site_type_symbol
  _atom_site_label
  _atom_site_symmetry_multiplicity
  _atom_site_fract_x
  _atom_site_fract_y
  _atom_site_fract_z
  _atom_site_occupancy
  C   C1        1.0  0.0  0.0  0.48465068527011296  1.0000
  Cl  Cl1       1.0  0.33333298543221457  0.6666669831836742  0.6116612989504412  1.0000
  H   H1        1.0  0.6666669847440474  0.3333329859851446  0.3883387010495588  1.0000
  Sc  Sc1       1.0  0.33333298543221457  0.6666669831836742  0.4311299062827324  1.0000
  Sc  Sc2       1.0  0.6666669847440474  0.3333329859851446  0.5383925847468168  1.0000
