data_image0
_chemical_formula_structural       C2N2OY2
_chemical_formula_sum              "C2 N2 O1 Y2"
_cell_length_a       3.6937570342223096
_cell_length_b       3.6937570342434918
_cell_length_c       25.961879410089857
_cell_angle_alpha    90.0
_cell_angle_beta     90.0
_cell_angle_gamma    119.9999999998103

_space_group_name_H-M_alt    "P 1"
_space_group_IT_number       1

loop_
  _space_group_symop_operation_xyz
  'x, y, z'

loop_
  _atom_site_type_symbol
  _atom_site_label
  _atom_site_symmetry_multiplicity
  _atom_site_fract_x
  _atom_site_fract_y
  _atom_site_fract_z
  _atom_site_occupancy
  C   C1        1.0  0.0  0.0  0.49861687728143067  1.0000
  C   C2        1.0  0.3333329854322147  0.6666669831836742  0.6071256258688118  1.0000
  N   N1        1.0  0.3333329854322147  0.6666669831836742  0.6533378859890155  1.0000
  N   N2        1.0  0.6666669847440474  0.3333329859851446  0.39656362209659823  1.0000
  O   O1        1.0  0.6666669847440474  0.3333329859851446  0.3466621140109845  1.0000
  Y   Y1        1.0  0.3333329854322147  0.6666669831836742  0.4447991035772386  1.0000
  Y   Y2        1.0  0.6666669847440474  0.3333329859851446  0.5503979809601125  1.0000
