data_image0
_chemical_formula_structural       CFN2Zr2
_chemical_formula_sum              "C1 F1 N2 Zr2"
_cell_length_a       3.394382861684898
_cell_length_b       3.3943828616800746
_cell_length_c       24.32320337235133
_cell_angle_alpha    90.0
_cell_angle_beta     90.0
_cell_angle_gamma    120.00000000004701

_space_group_name_H-M_alt    "P 1"
_space_group_IT_number       1

loop_
  _space_group_symop_operation_xyz
  'x, y, z'

loop_
  _atom_site_type_symbol
  _atom_site_label
  _atom_site_symmetry_multiplicity
  _atom_site_fract_x
  _atom_site_fract_y
  _atom_site_fract_z
  _atom_site_occupancy
  C   C1        1.0  0.3333329854322145  0.6666669831836742  0.5804640260398731  1.0000
  F   F1        1.0  0.6666669847440474  0.3333329859851446  0.3700170517108153  1.0000
  N   N1        1.0  0.0  0.0  0.46947170785188636  1.0000
  N   N2        1.0  0.3333329854322145  0.6666669831836742  0.6299829482891848  1.0000
  Zr  Zr1       1.0  0.3333329854322145  0.6666669831836742  0.4237535032424623  1.0000
  Zr  Zr2       1.0  0.6666669847440474  0.3333329859851446  0.5190872202409773  1.0000
