data_image0
_chemical_formula_structural       C2ClNO2Zr2
_chemical_formula_sum              "C2 Cl1 N1 O2 Zr2"
_cell_length_a       3.3230927401080987
_cell_length_b       3.32309274009768
_cell_length_c       28.92481124873605
_cell_angle_alpha    90.0
_cell_angle_beta     90.0
_cell_angle_gamma    120.00000000010373

_space_group_name_H-M_alt    "P 1"
_space_group_IT_number       1

loop_
  _space_group_symop_operation_xyz
  'x, y, z'

loop_
  _atom_site_type_symbol
  _atom_site_label
  _atom_site_symmetry_multiplicity
  _atom_site_fract_x
  _atom_site_fract_y
  _atom_site_fract_z
  _atom_site_occupancy
  C   C1        1.0  0.0  0.0  0.4892725642554842  1.0000
  C   C2        1.0  0.6666669847440473  0.3333329859851446  0.35222181847547424  1.0000
  Cl  Cl1       1.0  0.3333329854322145  0.6666669831836742  0.6888484449352015  1.0000
  N   N1        1.0  0.6666669847440473  0.3333329859851446  0.3111515550647985  1.0000
  O   O1        1.0  0.3333329854322145  0.6666669831836742  0.5708497100702825  1.0000
  O   O2        1.0  0.6666669847440473  0.3333329859851446  0.3984479510098308  1.0000
  Zr  Zr1       1.0  0.3333329854322145  0.6666669831836742  0.4466957993172432  1.0000
  Zr  Zr2       1.0  0.6666669847440473  0.3333329859851446  0.5397286184318653  1.0000
