data_image0
_chemical_formula_structural       C2HNO2Sc2
_chemical_formula_sum              "C2 H1 N1 O2 Sc2"
_cell_length_a       3.341711834360182
_cell_length_b       3.3417118343560883
_cell_length_c       26.48317190587136
_cell_angle_alpha    90.0
_cell_angle_beta     90.0
_cell_angle_gamma    120.00000000004053

_space_group_name_H-M_alt    "P 1"
_space_group_IT_number       1

loop_
  _space_group_symop_operation_xyz
  'x, y, z'

loop_
  _atom_site_type_symbol
  _atom_site_label
  _atom_site_symmetry_multiplicity
  _atom_site_fract_x
  _atom_site_fract_y
  _atom_site_fract_z
  _atom_site_occupancy
  C   C1        1.0  0.0  0.0  0.5290861661023648  1.0000
  C   C2        1.0  0.6666669847440475  0.3333329859851446  0.3846932278248667  1.0000
  H   H1        1.0  0.3333329854322145  0.6666669831836742  0.6601615534578512  1.0000
  N   N1        1.0  0.6666669847440475  0.3333329859851446  0.3398384465421488  1.0000
  O   O1        1.0  0.3333329854322145  0.6666669831836742  0.6230238192064922  1.0000
  O   O2        1.0  0.6666669847440475  0.3333329859851446  0.43510749951935485  1.0000
  Sc  Sc1       1.0  0.3333329854322145  0.6666669831836742  0.4820665815722375  1.0000
  Sc  Sc2       1.0  0.6666669847440475  0.3333329859851446  0.5770327824218772  1.0000
