data_image0
_chemical_formula_structural       C2FNSZr2
_chemical_formula_sum              "C2 F1 N1 S1 Zr2"
_cell_length_a       3.4021318659640523
_cell_length_b       3.402131865949334
_cell_length_c       25.959394277470707
_cell_angle_alpha    90.0
_cell_angle_beta     90.0
_cell_angle_gamma    120.00000000014312

_space_group_name_H-M_alt    "P 1"
_space_group_IT_number       1

loop_
  _space_group_symop_operation_xyz
  'x, y, z'

loop_
  _atom_site_type_symbol
  _atom_site_label
  _atom_site_symmetry_multiplicity
  _atom_site_fract_x
  _atom_site_fract_y
  _atom_site_fract_z
  _atom_site_occupancy
  C   C1        1.0  0.0  0.0  0.4428952537753875  1.0000
  C   C2        1.0  0.3333329854322145  0.6666669831836742  0.5934455913730017  1.0000
  F   F1        1.0  0.6666669847440472  0.3333329859851446  0.3466953005067148  1.0000
  N   N1        1.0  0.3333329854322145  0.6666669831836742  0.5451948826413177  1.0000
  S   S1        1.0  0.3333329854322145  0.6666669831836742  0.6533046994932852  1.0000
  Zr  Zr1       1.0  0.3333329854322145  0.6666669831836742  0.3971261901683249  1.0000
  Zr  Zr2       1.0  0.6666669847440472  0.3333329859851446  0.49162241343632473  1.0000
