data_image0
_chemical_formula_structural       CN2OPSTi2
_chemical_formula_sum              "C1 N2 O1 P1 S1 Ti2"
_cell_length_a       3.1717342158714854
_cell_length_b       3.1717342158703445
_cell_length_c       27.587059276303115
_cell_angle_alpha    90.0
_cell_angle_beta     90.0
_cell_angle_gamma    120.0000000000119

_space_group_name_H-M_alt    "P 1"
_space_group_IT_number       1

loop_
  _space_group_symop_operation_xyz
  'x, y, z'

loop_
  _atom_site_type_symbol
  _atom_site_label
  _atom_site_symmetry_multiplicity
  _atom_site_fract_x
  _atom_site_fract_y
  _atom_site_fract_z
  _atom_site_occupancy
  C   C1        1.0  0.33333298543221457  0.6666669831836742  0.6176420520566133  1.0000
  N   N1        1.0  0.0  0.0  0.4862389593805692  1.0000
  N   N2        1.0  0.33333298543221457  0.6666669831836742  0.5720577535775475  1.0000
  O   O1        1.0  0.6666669847440474  0.3333329859851446  0.3262399195890687  1.0000
  P   P1        1.0  0.6666669847440474  0.3333329859851446  0.3803324889482462  1.0000
  S   S1        1.0  0.33333298543221457  0.6666669831836742  0.6737600804109313  1.0000
  Ti  Ti1       1.0  0.33333298543221457  0.6666669831836742  0.4470255805352739  1.0000
  Ti  Ti2       1.0  0.6666669847440474  0.3333329859851446  0.5261820539001277  1.0000
