data_image0
_chemical_formula_structural       NO2P2Ti2
_chemical_formula_sum              "N1 O2 P2 Ti2"
_cell_length_a       3.0831609362192696
_cell_length_b       3.0831609362239853
_cell_length_c       26.99744960684893
_cell_angle_alpha    90.0
_cell_angle_beta     90.0
_cell_angle_gamma    119.99999999994941

_space_group_name_H-M_alt    "P 1"
_space_group_IT_number       1

loop_
  _space_group_symop_operation_xyz
  'x, y, z'

loop_
  _atom_site_type_symbol
  _atom_site_label
  _atom_site_symmetry_multiplicity
  _atom_site_fract_x
  _atom_site_fract_y
  _atom_site_fract_z
  _atom_site_occupancy
  N   N1        1.0  0.0  0.0  0.5000000364005769  1.0000
  O   O1        1.0  0.3333329854322147  0.6666669831836743  0.6666351773570194  1.0000
  O   O2        1.0  0.6666669847440474  0.3333329859851446  0.3333648226429806  1.0000
  P   P1        1.0  0.3333329854322147  0.6666669831836743  0.61144250152083  1.0000
  P   P2        1.0  0.6666669847440474  0.3333329859851446  0.38855749847916937  1.0000
  Ti  Ti1       1.0  0.3333329854322147  0.6666669831836743  0.4568133694405173  1.0000
  Ti  Ti2       1.0  0.6666669847440474  0.3333329859851446  0.5431866300161805  1.0000
