data_image0
_chemical_formula_structural       C3Hf2N2OS
_chemical_formula_sum              "C3 Hf2 N2 O1 S1"
_cell_length_a       3.3573996304234064
_cell_length_b       3.3573996304148515
_cell_length_c       28.454355858407688
_cell_angle_alpha    90.0
_cell_angle_beta     90.0
_cell_angle_gamma    120.00000000008428

_space_group_name_H-M_alt    "P 1"
_space_group_IT_number       1

loop_
  _space_group_symop_operation_xyz
  'x, y, z'

loop_
  _atom_site_type_symbol
  _atom_site_label
  _atom_site_symmetry_multiplicity
  _atom_site_fract_x
  _atom_site_fract_y
  _atom_site_fract_z
  _atom_site_occupancy
  C   C1        1.0  0.0  0.0  0.493960824008669  1.0000
  C   C2        1.0  0.3333329854322145  0.6666669831836742  0.6292097101576257  1.0000
  C   C3        1.0  0.6666669847440474  0.33333298598514477  0.3580311714708209  1.0000
  Hf  Hf1       1.0  0.3333329854322145  0.6666669831836742  0.4533761090122503  1.0000
  Hf  Hf2       1.0  0.6666669847440474  0.33333298598514477  0.5373413697149735  1.0000
  N   N1        1.0  0.3333329854322145  0.6666669831836742  0.584925412161272  1.0000
  N   N2        1.0  0.6666669847440474  0.33333298598514477  0.3162960372318772  1.0000
  O   O1        1.0  0.6666669847440474  0.33333298598514477  0.4050641333172318  1.0000
  S   S1        1.0  0.3333329854322145  0.6666669831836742  0.683703962768123  1.0000
