data_image0
_chemical_formula_structural       C2NOPSSc2
_chemical_formula_sum              "C2 N1 O1 P1 S1 Sc2"
_cell_length_a       3.473006068132861
_cell_length_b       3.473006068124538
_cell_length_c       28.406198488736877
_cell_angle_alpha    90.0
_cell_angle_beta     90.0
_cell_angle_gamma    120.00000000007928

_space_group_name_H-M_alt    "P 1"
_space_group_IT_number       1

loop_
  _space_group_symop_operation_xyz
  'x, y, z'

loop_
  _atom_site_type_symbol
  _atom_site_label
  _atom_site_symmetry_multiplicity
  _atom_site_fract_x
  _atom_site_fract_y
  _atom_site_fract_z
  _atom_site_occupancy
  C   C1        1.0  0.0  0.0  0.4813607779396787  1.0000
  C   C2        1.0  0.33333298543221446  0.6666669831836742  0.6412527631482485  1.0000
  N   N1        1.0  0.33333298543221446  0.6666669831836742  0.6831677422951008  1.0000
  O   O1        1.0  0.6666669847440474  0.3333329859851446  0.3168322577048992  1.0000
  P   P1        1.0  0.6666669847440474  0.3333329859851446  0.3694609758357889  1.0000
  S   S1        1.0  0.33333298543221446  0.6666669831836742  0.5823743642284125  1.0000
  Sc  Sc1       1.0  0.33333298543221446  0.6666669831836742  0.4401071988345224  1.0000
  Sc  Sc2       1.0  0.6666669847440474  0.3333329859851446  0.5247954631835898  1.0000
