data_image0
_chemical_formula_structural       CFNOY2
_chemical_formula_sum              "C1 F1 N1 O1 Y2"
_cell_length_a       3.6327766600737137
_cell_length_b       3.632776660082813
_cell_length_c       24.50628480670005
_cell_angle_alpha    90.0
_cell_angle_beta     90.0
_cell_angle_gamma    119.99999999991715

_space_group_name_H-M_alt    "P 1"
_space_group_IT_number       1

loop_
  _space_group_symop_operation_xyz
  'x, y, z'

loop_
  _atom_site_type_symbol
  _atom_site_label
  _atom_site_symmetry_multiplicity
  _atom_site_fract_x
  _atom_site_fract_y
  _atom_site_fract_z
  _atom_site_occupancy
  C   C1        1.0  0.0  0.0  0.46979844374236257  1.0000
  F   F1        1.0  0.6666669847440474  0.3333329859851447  0.36725273010535603  1.0000
  N   N1        1.0  0.33333298543221446  0.6666669831836742  0.5799684225891425  1.0000
  O   O1        1.0  0.33333298543221446  0.6666669831836742  0.632747269894644  1.0000
  Y   Y1        1.0  0.33333298543221446  0.6666669831836742  0.41419607607477754  1.0000
  Y   Y2        1.0  0.6666669847440474  0.3333329859851447  0.5266954542965616  1.0000
