data_image0
_chemical_formula_structural       CClN2O2Ti2
_chemical_formula_sum              "C1 Cl1 N2 O2 Ti2"
_cell_length_a       3.085196314964865
_cell_length_b       3.0851963149648665
_cell_length_c       30.135824129849183
_cell_angle_alpha    90.0
_cell_angle_beta     90.0
_cell_angle_gamma    119.99999999999999

_space_group_name_H-M_alt    "P 1"
_space_group_IT_number       1

loop_
  _space_group_symop_operation_xyz
  'x, y, z'

loop_
  _atom_site_type_symbol
  _atom_site_label
  _atom_site_symmetry_multiplicity
  _atom_site_fract_x
  _atom_site_fract_y
  _atom_site_fract_z
  _atom_site_occupancy
  C   C1        1.0  0.6666669847440474  0.3333329859851446  0.338573505506975  1.0000
  Cl  Cl1       1.0  0.3333329854322146  0.6666669831836742  0.701352119616148  1.0000
  N   N1        1.0  0.0  0.0  0.46204851887463694  1.0000
  N   N2        1.0  0.6666669847440474  0.3333329859851446  0.3799903958696508  1.0000
  O   O1        1.0  0.3333329854322146  0.6666669831836742  0.5337508896506525  1.0000
  O   O2        1.0  0.6666669847440474  0.3333329859851446  0.298647880383852  1.0000
  Ti  Ti1       1.0  0.3333329854322146  0.6666669831836742  0.42446728825049307  1.0000
  Ti  Ti2       1.0  0.6666669847440474  0.3333329859851446  0.5039069207944418  1.0000
