data_image0
_chemical_formula_structural       HNOPTi2
_chemical_formula_sum              "H1 N1 O1 P1 Ti2"
_cell_length_a       3.05321423649491
_cell_length_b       3.0532142364932486
_cell_length_c       24.61713762200308
_cell_angle_alpha    90.0
_cell_angle_beta     90.0
_cell_angle_gamma    120.000000000018

_space_group_name_H-M_alt    "P 1"
_space_group_IT_number       1

loop_
  _space_group_symop_operation_xyz
  'x, y, z'

loop_
  _atom_site_type_symbol
  _atom_site_label
  _atom_site_symmetry_multiplicity
  _atom_site_fract_x
  _atom_site_fract_y
  _atom_site_fract_z
  _atom_site_occupancy
  H   H1        1.0  0.6666669847440475  0.3333329859851446  0.3655989635430115  1.0000
  N   N1        1.0  0.0  0.0  0.4513960624158789  1.0000
  O   O1        1.0  0.3333329854322145  0.6666669831836742  0.6344010364569885  1.0000
  P   P1        1.0  0.3333329854322145  0.6666669831836742  0.5738483535945902  1.0000
  Ti  Ti1       1.0  0.3333329854322145  0.6666669831836742  0.4041154059355395  1.0000
  Ti  Ti2       1.0  0.6666669847440475  0.3333329859851446  0.49868491406944365  1.0000
