data_image0
_chemical_formula_structural       ClHf2NO2
_chemical_formula_sum              "Cl1 Hf2 N1 O2"
_cell_length_a       3.2255618828488375
_cell_length_b       3.2255618828565678
_cell_length_c       25.920320083969273
_cell_angle_alpha    90.0
_cell_angle_beta     90.0
_cell_angle_gamma    119.99999999992073

_space_group_name_H-M_alt    "P 1"
_space_group_IT_number       1

loop_
  _space_group_symop_operation_xyz
  'x, y, z'

loop_
  _atom_site_type_symbol
  _atom_site_label
  _atom_site_symmetry_multiplicity
  _atom_site_fract_x
  _atom_site_fract_y
  _atom_site_fract_z
  _atom_site_occupancy
  Cl  Cl1       1.0  0.3333329854322145  0.6666669831836742  0.6527820655437757  1.0000
  Hf  Hf1       1.0  0.3333329854322145  0.6666669831836742  0.384640679497606  1.0000
  Hf  Hf2       1.0  0.6666669847440473  0.3333329859851446  0.4885272929308  1.0000
  N   N1        1.0  0.0  0.0  0.43622863721306315  1.0000
  O   O1        1.0  0.3333329854322145  0.6666669831836742  0.5236720004157622  1.0000
  O   O2        1.0  0.6666669847440473  0.3333329859851446  0.3472179344562244  1.0000
