data_image0
_chemical_formula_structural       C2FNOZr2
_chemical_formula_sum              "C2 F1 N1 O1 Zr2"
_cell_length_a       3.38086890559141
_cell_length_b       3.3808689055882444
_cell_length_c       25.653004594654817
_cell_angle_alpha    90.0
_cell_angle_beta     90.0
_cell_angle_gamma    120.00000000003098

_space_group_name_H-M_alt    "P 1"
_space_group_IT_number       1

loop_
  _space_group_symop_operation_xyz
  'x, y, z'

loop_
  _atom_site_type_symbol
  _atom_site_label
  _atom_site_symmetry_multiplicity
  _atom_site_fract_x
  _atom_site_fract_y
  _atom_site_fract_z
  _atom_site_occupancy
  C   C1        1.0  0.0  0.0  0.4485190659826788  1.0000
  C   C2        1.0  0.3333329854322145  0.6666669831836742  0.6021871142716835  1.0000
  F   F1        1.0  0.6666669847440474  0.3333329859851446  0.35083609667599264  1.0000
  N   N1        1.0  0.3333329854322145  0.6666669831836742  0.5535878343097066  1.0000
  O   O1        1.0  0.3333329854322145  0.6666669831836742  0.6491639033240074  1.0000
  Zr  Zr1       1.0  0.3333329854322145  0.6666669831836742  0.4018048352218129  1.0000
  Zr  Zr2       1.0  0.6666669847440474  0.3333329859851446  0.49713385581568537  1.0000
