data_image0
_chemical_formula_structural       CHf2N2OP
_chemical_formula_sum              "C1 Hf2 N2 O1 P1"
_cell_length_a       3.2465796091586507
_cell_length_b       3.2465796091552765
_cell_length_c       26.619379776816448
_cell_angle_alpha    90.0
_cell_angle_beta     90.0
_cell_angle_gamma    120.00000000003439

_space_group_name_H-M_alt    "P 1"
_space_group_IT_number       1

loop_
  _space_group_symop_operation_xyz
  'x, y, z'

loop_
  _atom_site_type_symbol
  _atom_site_label
  _atom_site_symmetry_multiplicity
  _atom_site_fract_x
  _atom_site_fract_y
  _atom_site_fract_z
  _atom_site_occupancy
  C   C1        1.0  0.3333329854322146  0.6666669831836742  0.6163770656538425  1.0000
  Hf  Hf1       1.0  0.3333329854322146  0.6666669831836742  0.466508869505639  1.0000
  Hf  Hf2       1.0  0.6666669847440473  0.3333329859851446  0.5612978628304939  1.0000
  N   N1        1.0  0.0  0.0  0.5146457220924995  1.0000
  N   N2        1.0  0.3333329854322146  0.6666669831836742  0.6619004621648492  1.0000
  O   O1        1.0  0.6666669847440473  0.3333329859851446  0.3380995378351508  1.0000
  P   P1        1.0  0.6666669847440473  0.3333329859851446  0.394213750559829  1.0000
