data_image0
_chemical_formula_structural       N2O2Sc2
_chemical_formula_sum              "N2 O2 Sc2"
_cell_length_a       3.2909170612766747
_cell_length_b       3.2909170612866983
_cell_length_c       23.979555441151646
_cell_angle_alpha    90.0
_cell_angle_beta     90.0
_cell_angle_gamma    119.99999999989926

_space_group_name_H-M_alt    "P 1"
_space_group_IT_number       1

loop_
  _space_group_symop_operation_xyz
  'x, y, z'

loop_
  _atom_site_type_symbol
  _atom_site_label
  _atom_site_symmetry_multiplicity
  _atom_site_fract_x
  _atom_site_fract_y
  _atom_site_fract_z
  _atom_site_occupancy
  N   N1        1.0  0.0  0.0  0.4710526524337229  1.0000
  N   N2        1.0  0.3333329854322145  0.6666669831836742  0.5712591891245082  1.0000
  O   O1        1.0  0.3333329854322145  0.6666669831836742  0.6246802814136005  1.0000
  O   O2        1.0  0.6666669847440474  0.3333329859851446  0.37531971858639956  1.0000
  Sc  Sc1       1.0  0.3333329854322145  0.6666669831836742  0.40455010710034073  1.0000
  Sc  Sc2       1.0  0.6666669847440474  0.3333329859851446  0.5139037586978031  1.0000
