data_image0
_chemical_formula_structural       CH2La2
_chemical_formula_sum              "C1 H2 La2"
_cell_length_a       3.8952483732236045
_cell_length_b       3.8952483732270893
_cell_length_c       22.97303205842624
_cell_angle_alpha    89.99999999999999
_cell_angle_beta     89.99999999999999
_cell_angle_gamma    119.99999999997037

_space_group_name_H-M_alt    "P 1"
_space_group_IT_number       1

loop_
  _space_group_symop_operation_xyz
  'x, y, z'

loop_
  _atom_site_type_symbol
  _atom_site_label
  _atom_site_symmetry_multiplicity
  _atom_site_fract_x
  _atom_site_fract_y
  _atom_site_fract_z
  _atom_site_occupancy
  C   C1        1.0  0.0  0.0  0.5000000267999951  1.0000
  H   H1        1.0  0.3333329854322145  0.6666669831836742  0.6101760193771838  1.0000
  H   H2        1.0  0.6666669847440474  0.3333329859851446  0.3898239806228162  1.0000
  La  La1       1.0  0.3333329854322145  0.6666669831836742  0.435107418908353  1.0000
  La  La2       1.0  0.6666669847440474  0.3333329859851446  0.5648925806916398  1.0000
