data_image0
_chemical_formula_structural       BrCHf2N2
_chemical_formula_sum              "Br1 C1 Hf2 N2"
_cell_length_a       3.3956901256268597
_cell_length_b       3.395690125626163
_cell_length_c       24.849663214421128
_cell_angle_alpha    90.0
_cell_angle_beta     90.0
_cell_angle_gamma    120.00000000000678

_space_group_name_H-M_alt    "P 1"
_space_group_IT_number       1

loop_
  _space_group_symop_operation_xyz
  'x, y, z'

loop_
  _atom_site_type_symbol
  _atom_site_label
  _atom_site_symmetry_multiplicity
  _atom_site_fract_x
  _atom_site_fract_y
  _atom_site_fract_z
  _atom_site_occupancy
  Br  Br1       1.0  0.6666669847440475  0.3333329859851446  0.3621779467327744  1.0000
  C   C1        1.0  0.33333298543221457  0.6666669831836742  0.589187384118054  1.0000
  Hf  Hf1       1.0  0.33333298543221457  0.6666669831836742  0.4408436017234825  1.0000
  Hf  Hf2       1.0  0.6666669847440475  0.3333329859851446  0.5313181263381109  1.0000
  N   N1        1.0  0.0  0.0  0.48558895581039174  1.0000
  N   N2        1.0  0.33333298543221457  0.6666669831836742  0.6378220532672255  1.0000
