data_image0
_chemical_formula_structural       FHHf2NO
_chemical_formula_sum              "F1 H1 Hf2 N1 O1"
_cell_length_a       3.318905842918085
_cell_length_b       3.3189058429164935
_cell_length_c       23.834602069671227
_cell_angle_alpha    90.0
_cell_angle_beta     90.0
_cell_angle_gamma    120.00000000001587

_space_group_name_H-M_alt    "P 1"
_space_group_IT_number       1

loop_
  _space_group_symop_operation_xyz
  'x, y, z'

loop_
  _atom_site_type_symbol
  _atom_site_label
  _atom_site_symmetry_multiplicity
  _atom_site_fract_x
  _atom_site_fract_y
  _atom_site_fract_z
  _atom_site_occupancy
  F   F1        1.0  0.3333329854322145  0.6666669831836742  0.6223977235410942  1.0000
  H   H1        1.0  0.6666669847440476  0.3333329859851446  0.37760227645890565  1.0000
  Hf  Hf1       1.0  0.3333329854322145  0.6666669831836742  0.4727775582031343  1.0000
  Hf  Hf2       1.0  0.6666669847440476  0.3333329859851446  0.5679014545982606  1.0000
  N   N1        1.0  0.0  0.0  0.521796386576005  1.0000
  O   O1        1.0  0.6666669847440476  0.3333329859851446  0.4193248902913478  1.0000
