data_image0
_chemical_formula_structural       N2O2Zr2
_chemical_formula_sum              "N2 O2 Zr2"
_cell_length_a       3.3529026458983346
_cell_length_b       3.3529026458952442
_cell_length_c       23.97041951485566
_cell_angle_alpha    90.0
_cell_angle_beta     90.0
_cell_angle_gamma    120.0000000000305

_space_group_name_H-M_alt    "P 1"
_space_group_IT_number       1

loop_
  _space_group_symop_operation_xyz
  'x, y, z'

loop_
  _atom_site_type_symbol
  _atom_site_label
  _atom_site_symmetry_multiplicity
  _atom_site_fract_x
  _atom_site_fract_y
  _atom_site_fract_z
  _atom_site_occupancy
  N   N1        1.0  0.0  0.0  0.4666316902181293  1.0000
  N   N2        1.0  0.3333329854322144  0.6666669831836742  0.5685605960394179  1.0000
  O   O1        1.0  0.3333329854322144  0.6666669831836742  0.6245372345518504  1.0000
  O   O2        1.0  0.6666669847440472  0.3333329859851446  0.3754627654481496  1.0000
  Zr  Zr1       1.0  0.3333329854322144  0.6666669831836742  0.4140705676390581  1.0000
  Zr  Zr2       1.0  0.6666669847440472  0.3333329859851446  0.5293116089472258  1.0000
