data_image0
_chemical_formula_structural       F2NTi2
_chemical_formula_sum              "F2 N1 Ti2"
_cell_length_a       3.2519425341747095
_cell_length_b       3.25194253417638
_cell_length_c       22.391192758343582
_cell_angle_alpha    90.0
_cell_angle_beta     90.0
_cell_angle_gamma    119.99999999998302

_space_group_name_H-M_alt    "P 1"
_space_group_IT_number       1

loop_
  _space_group_symop_operation_xyz
  'x, y, z'

loop_
  _atom_site_type_symbol
  _atom_site_label
  _atom_site_symmetry_multiplicity
  _atom_site_fract_x
  _atom_site_fract_y
  _atom_site_fract_z
  _atom_site_occupancy
  F   F1        1.0  0.3333329854322145  0.6666669831836742  0.5980562492971104  1.0000
  F   F2        1.0  0.6666669847440474  0.3333329859851445  0.40194375070288973  1.0000
  N   N1        1.0  0.0  0.0  0.5000000394512208  1.0000
  Ti  Ti1       1.0  0.3333329854322145  0.6666669831836742  0.4545970697689988  1.0000
  Ti  Ti2       1.0  0.6666669847440474  0.3333329859851445  0.5454029296421665  1.0000
