data_image0
_chemical_formula_structural       BrHNOTi2
_chemical_formula_sum              "Br1 H1 N1 O1 Ti2"
_cell_length_a       3.2250155656134236
_cell_length_b       3.225015565615902
_cell_length_c       24.125940429063693
_cell_angle_alpha    90.0
_cell_angle_beta     90.0
_cell_angle_gamma    119.99999999997458

_space_group_name_H-M_alt    "P 1"
_space_group_IT_number       1

loop_
  _space_group_symop_operation_xyz
  'x, y, z'

loop_
  _atom_site_type_symbol
  _atom_site_label
  _atom_site_symmetry_multiplicity
  _atom_site_fract_x
  _atom_site_fract_y
  _atom_site_fract_z
  _atom_site_occupancy
  Br  Br1       1.0  0.3333329854322145  0.6666669831836742  0.626957546941548  1.0000
  H   H1        1.0  0.6666669847440474  0.3333329859851446  0.373042453058452  1.0000
  N   N1        1.0  0.0  0.0  0.5070842047737636  1.0000
  O   O1        1.0  0.6666669847440474  0.3333329859851446  0.4139207175555621  1.0000
  Ti  Ti1       1.0  0.3333329854322145  0.6666669831836742  0.4643457728275155  1.0000
  Ti  Ti2       1.0  0.6666669847440474  0.3333329859851446  0.5497001534230417  1.0000
