data_image0
_chemical_formula_structural       CHN2OZr2
_chemical_formula_sum              "C1 H1 N2 O1 Zr2"
_cell_length_a       3.3390969438755054
_cell_length_b       3.3390969438544658
_cell_length_c       25.28981777175023
_cell_angle_alpha    90.0
_cell_angle_beta     90.0
_cell_angle_gamma    120.00000000020843

_space_group_name_H-M_alt    "P 1"
_space_group_IT_number       1

loop_
  _space_group_symop_operation_xyz
  'x, y, z'

loop_
  _atom_site_type_symbol
  _atom_site_label
  _atom_site_symmetry_multiplicity
  _atom_site_fract_x
  _atom_site_fract_y
  _atom_site_fract_z
  _atom_site_occupancy
  C   C1        1.0  0.33333298543221446  0.6666669831836742  0.5964692312883824  1.0000
  H   H1        1.0  0.6666669847440474  0.3333329859851446  0.35587445039059834  1.0000
  N   N1        1.0  0.0  0.0  0.44317956679036746  1.0000
  N   N2        1.0  0.33333298543221446  0.6666669831836742  0.5471505583086647  1.0000
  O   O1        1.0  0.33333298543221446  0.6666669831836742  0.6441255496094016  1.0000
  Zr  Zr1       1.0  0.33333298543221446  0.6666669831836742  0.396171604475814  1.0000
  Zr  Zr2       1.0  0.6666669847440474  0.3333329859851446  0.4895124436951757  1.0000
