data_image0
_chemical_formula_structural       CHN2OY2
_chemical_formula_sum              "C1 H1 N2 O1 Y2"
_cell_length_a       3.545798162640341
_cell_length_b       3.5457981626398336
_cell_length_c       25.6762529879314
_cell_angle_alpha    90.0
_cell_angle_beta     90.0
_cell_angle_gamma    120.00000000000475

_space_group_name_H-M_alt    "P 1"
_space_group_IT_number       1

loop_
  _space_group_symop_operation_xyz
  'x, y, z'

loop_
  _atom_site_type_symbol
  _atom_site_label
  _atom_site_symmetry_multiplicity
  _atom_site_fract_x
  _atom_site_fract_y
  _atom_site_fract_z
  _atom_site_occupancy
  C   C1        1.0  0.3333329854322145  0.6666669831836742  0.6027268665707595  1.0000
  H   H1        1.0  0.6666669847440475  0.3333329859851446  0.350518434454991  1.0000
  N   N1        1.0  0.0  0.0  0.48982613446541456  1.0000
  N   N2        1.0  0.3333329854322145  0.6666669831836742  0.6494815655450089  1.0000
  O   O1        1.0  0.6666669847440475  0.3333329859851446  0.3889196928114202  1.0000
  Y   Y1        1.0  0.3333329854322145  0.6666669831836742  0.439557964732384  1.0000
  Y   Y2        1.0  0.6666669847440475  0.3333329859851446  0.5437505853433501  1.0000
