data_image0
_chemical_formula_structural       BrFNY2
_chemical_formula_sum              "Br1 F1 N1 Y2"
_cell_length_a       3.586572704208845
_cell_length_b       3.5865727042152367
_cell_length_c       23.817608905072507
_cell_angle_alpha    90.0
_cell_angle_beta     90.0
_cell_angle_gamma    119.99999999994107

_space_group_name_H-M_alt    "P 1"
_space_group_IT_number       1

loop_
  _space_group_symop_operation_xyz
  'x, y, z'

loop_
  _atom_site_type_symbol
  _atom_site_label
  _atom_site_symmetry_multiplicity
  _atom_site_fract_x
  _atom_site_fract_y
  _atom_site_fract_z
  _atom_site_occupancy
  Br  Br1       1.0  0.6666669847440474  0.3333329859851446  0.3778716845956456  1.0000
  F   F1        1.0  0.33333298543221446  0.6666669831836742  0.6221283154043544  1.0000
  N   N1        1.0  0.0  0.0  0.5187267198367096  1.0000
  Y   Y1        1.0  0.33333298543221446  0.6666669831836742  0.4610494678380596  1.0000
  Y   Y2        1.0  0.6666669847440474  0.3333329859851446  0.5714461134474881  1.0000
