data_image0
_chemical_formula_structural       CClN2OY2
_chemical_formula_sum              "C1 Cl1 N2 O1 Y2"
_cell_length_a       3.7485916224435667
_cell_length_b       3.7485916224504963
_cell_length_c       25.842838646122736
_cell_angle_alpha    90.0
_cell_angle_beta     90.0
_cell_angle_gamma    119.99999999993885

_space_group_name_H-M_alt    "P 1"
_space_group_IT_number       1

loop_
  _space_group_symop_operation_xyz
  'x, y, z'

loop_
  _atom_site_type_symbol
  _atom_site_label
  _atom_site_symmetry_multiplicity
  _atom_site_fract_x
  _atom_site_fract_y
  _atom_site_fract_z
  _atom_site_occupancy
  C   C1        1.0  0.3333329854322145  0.6666669831836742  0.6053824108126654  1.0000
  Cl  Cl1       1.0  0.6666669847440474  0.3333329859851446  0.34825895573009324  1.0000
  N   N1        1.0  0.0  0.0  0.5188271522261261  1.0000
  N   N2        1.0  0.3333329854322145  0.6666669831836742  0.6517410442699069  1.0000
  O   O1        1.0  0.6666669847440474  0.3333329859851446  0.45214719391426084  1.0000
  Y   Y1        1.0  0.3333329854322145  0.6666669831836742  0.4246789750815689  1.0000
  Y   Y2        1.0  0.6666669847440474  0.3333329859851446  0.5457645197381777  1.0000
