data_image0
_chemical_formula_structural       CClHf2N2O
_chemical_formula_sum              "C1 Cl1 Hf2 N2 O1"
_cell_length_a       3.239770486494123
_cell_length_b       3.239770486494459
_cell_length_c       27.57221818877579
_cell_angle_alpha    90.0
_cell_angle_beta     90.0
_cell_angle_gamma    119.99999999999658

_space_group_name_H-M_alt    "P 1"
_space_group_IT_number       1

loop_
  _space_group_symop_operation_xyz
  'x, y, z'

loop_
  _atom_site_type_symbol
  _atom_site_label
  _atom_site_symmetry_multiplicity
  _atom_site_fract_x
  _atom_site_fract_y
  _atom_site_fract_z
  _atom_site_occupancy
  C   C1        1.0  0.33333298543221446  0.6666669831836742  0.6296125381383115  1.0000
  Cl  Cl1       1.0  0.6666669847440472  0.3333329859851446  0.3264155222615987  1.0000
  Hf  Hf1       1.0  0.33333298543221446  0.6666669831836742  0.48234709657283137  1.0000
  Hf  Hf2       1.0  0.6666669847440472  0.3333329859851446  0.5774692679686364  1.0000
  N   N1        1.0  0.0  0.0  0.5295622313500272  1.0000
  N   N2        1.0  0.33333298543221446  0.6666669831836742  0.6735844777384014  1.0000
  O   O1        1.0  0.6666669847440472  0.3333329859851446  0.449459082847934  1.0000
