data_image0
_chemical_formula_structural       BrCHf2OP
_chemical_formula_sum              "Br1 C1 Hf2 O1 P1"
_cell_length_a       3.3958414566619513
_cell_length_b       3.3958414566563904
_cell_length_c       25.778903548673938
_cell_angle_alpha    90.0
_cell_angle_beta     90.0
_cell_angle_gamma    120.00000000005416

_space_group_name_H-M_alt    "P 1"
_space_group_IT_number       1

loop_
  _space_group_symop_operation_xyz
  'x, y, z'

loop_
  _atom_site_type_symbol
  _atom_site_label
  _atom_site_symmetry_multiplicity
  _atom_site_fract_x
  _atom_site_fract_y
  _atom_site_fract_z
  _atom_site_occupancy
  Br  Br1       1.0  0.6666669847440475  0.3333329859851446  0.3491226840973601  1.0000
  C   C1        1.0  0.0  0.0  0.46992560756298535  1.0000
  Hf  Hf1       1.0  0.33333298543221457  0.6666669831836742  0.425130592394042  1.0000
  Hf  Hf2       1.0  0.6666669847440475  0.3333329859851446  0.5179114973815828  1.0000
  O   O1        1.0  0.33333298543221457  0.6666669831836742  0.6508773159026401  1.0000
  P   P1        1.0  0.33333298543221457  0.6666669831836742  0.5928267598475103  1.0000
