data_image0
_chemical_formula_structural       CFNOZr2
_chemical_formula_sum              "C1 F1 N1 O1 Zr2"
_cell_length_a       3.4218063869923605
_cell_length_b       3.4218063869866313
_cell_length_c       24.193124031184055
_cell_angle_alpha    90.0
_cell_angle_beta     90.0
_cell_angle_gamma    120.00000000005538

_space_group_name_H-M_alt    "P 1"
_space_group_IT_number       1

loop_
  _space_group_symop_operation_xyz
  'x, y, z'

loop_
  _atom_site_type_symbol
  _atom_site_label
  _atom_site_symmetry_multiplicity
  _atom_site_fract_x
  _atom_site_fract_y
  _atom_site_fract_z
  _atom_site_occupancy
  C   C1        1.0  0.0  0.0  0.4718205619206211  1.0000
  F   F1        1.0  0.6666669847440475  0.3333329859851446  0.3720065250109628  1.0000
  N   N1        1.0  0.33333298543221457  0.6666669831836741  0.572967784362524  1.0000
  O   O1        1.0  0.33333298543221457  0.6666669831836741  0.6279934749890369  1.0000
  Zr  Zr1       1.0  0.33333298543221457  0.6666669831836741  0.4255302471984467  1.0000
  Zr  Zr2       1.0  0.6666669847440475  0.3333329859851446  0.5331001808892974  1.0000
