data_image0
_chemical_formula_structural       BrCHf2N2S
_chemical_formula_sum              "Br1 C1 Hf2 N2 S1"
_cell_length_a       3.406225836643933
_cell_length_b       3.4062258366340794
_cell_length_c       26.328767635240325
_cell_angle_alpha    90.0
_cell_angle_beta     90.0
_cell_angle_gamma    120.00000000009568

_space_group_name_H-M_alt    "P 1"
_space_group_IT_number       1

loop_
  _space_group_symop_operation_xyz
  'x, y, z'

loop_
  _atom_site_type_symbol
  _atom_site_label
  _atom_site_symmetry_multiplicity
  _atom_site_fract_x
  _atom_site_fract_y
  _atom_site_fract_z
  _atom_site_occupancy
  Br  Br1       1.0  0.6666669847440474  0.3333329859851446  0.3418314189515558  1.0000
  C   C1        1.0  0.33333298543221457  0.6666669831836742  0.5992403427970188  1.0000
  Hf  Hf1       1.0  0.33333298543221457  0.6666669831836742  0.4159515897014573  1.0000
  Hf  Hf2       1.0  0.6666669847440474  0.3333329859851446  0.5010452320988537  1.0000
  N   N1        1.0  0.0  0.0  0.4583879323196187  1.0000
  N   N2        1.0  0.33333298543221457  0.6666669831836742  0.551240898282416  1.0000
  S   S1        1.0  0.33333298543221457  0.6666669831836742  0.6581685810484441  1.0000
