data_image0
_chemical_formula_structural       C2FNSc2
_chemical_formula_sum              "C2 F1 N1 Sc2"
_cell_length_a       3.3855861301419163
_cell_length_b       3.3855861301378574
_cell_length_c       24.22182204448304
_cell_angle_alpha    90.0
_cell_angle_beta     90.0
_cell_angle_gamma    120.00000000003966

_space_group_name_H-M_alt    "P 1"
_space_group_IT_number       1

loop_
  _space_group_symop_operation_xyz
  'x, y, z'

loop_
  _atom_site_type_symbol
  _atom_site_label
  _atom_site_symmetry_multiplicity
  _atom_site_fract_x
  _atom_site_fract_y
  _atom_site_fract_z
  _atom_site_occupancy
  C   C1        1.0  0.0  0.0  0.4687019668569995  1.0000
  C   C2        1.0  0.33333298543221457  0.6666669831836742  0.57896356622402  1.0000
  F   F1        1.0  0.6666669847440474  0.3333329859851446  0.37156577170254274  1.0000
  N   N1        1.0  0.33333298543221457  0.6666669831836742  0.6284342282974573  1.0000
  Sc  Sc1       1.0  0.33333298543221457  0.6666669831836742  0.4166752775305934  1.0000
  Sc  Sc2       1.0  0.6666669847440474  0.3333329859851446  0.5197296957764748  1.0000
