data_image0
_chemical_formula_structural       BrC2NOSc2
_chemical_formula_sum              "Br1 C2 N1 O1 Sc2"
_cell_length_a       3.4499663655001025
_cell_length_b       3.4499663654993467
_cell_length_c       26.05197456432315
_cell_angle_alpha    90.0
_cell_angle_beta     90.0
_cell_angle_gamma    120.00000000000725

_space_group_name_H-M_alt    "P 1"
_space_group_IT_number       1

loop_
  _space_group_symop_operation_xyz
  'x, y, z'

loop_
  _atom_site_type_symbol
  _atom_site_label
  _atom_site_symmetry_multiplicity
  _atom_site_fract_x
  _atom_site_fract_y
  _atom_site_fract_z
  _atom_site_occupancy
  Br  Br1       1.0  0.33333298543221446  0.6666669831836742  0.6545367423962926  1.0000
  C   C1        1.0  0.0  0.0  0.536005731032542  1.0000
  C   C2        1.0  0.6666669847440473  0.3333329859851446  0.39109501835590393  1.0000
  N   N1        1.0  0.6666669847440473  0.3333329859851446  0.3454632576037073  1.0000
  O   O1        1.0  0.6666669847440473  0.3333329859851446  0.4423856899606273  1.0000
  Sc  Sc1       1.0  0.33333298543221446  0.6666669831836742  0.4884038757075748  1.0000
  Sc  Sc2       1.0  0.6666669847440473  0.3333329859851446  0.5830712712185813  1.0000
