data_image0
_chemical_formula_structural       CN3OSTi2
_chemical_formula_sum              "C1 N3 O1 S1 Ti2"
_cell_length_a       3.1546380526978246
_cell_length_b       3.154638052695305
_cell_length_c       27.665645259981574
_cell_angle_alpha    90.0
_cell_angle_beta     90.0
_cell_angle_gamma    120.00000000002643

_space_group_name_H-M_alt    "P 1"
_space_group_IT_number       1

loop_
  _space_group_symop_operation_xyz
  'x, y, z'

loop_
  _atom_site_type_symbol
  _atom_site_label
  _atom_site_symmetry_multiplicity
  _atom_site_fract_x
  _atom_site_fract_y
  _atom_site_fract_z
  _atom_site_occupancy
  C   C1        1.0  0.6666669847440475  0.3333329859851446  0.38135872638265067  1.0000
  N   N1        1.0  0.0  0.0  0.5012536771335874  1.0000
  N   N2        1.0  0.33333298543221457  0.6666669831836742  0.6016439171480576  1.0000
  N   N3        1.0  0.6666669847440475  0.3333329859851446  0.42627462511125513  1.0000
  O   O1        1.0  0.33333298543221457  0.6666669831836742  0.6746867851653355  1.0000
  S   S1        1.0  0.6666669847440475  0.3333329859851446  0.32531321483466435  1.0000
  Ti  Ti1       1.0  0.33333298543221457  0.6666669831836742  0.47775264999703176  1.0000
  Ti  Ti2       1.0  0.6666669847440475  0.3333329859851446  0.6343847711743561  1.0000
