data_image0
_chemical_formula_structural       C3N2OSSc2
_chemical_formula_sum              "C3 N2 O1 S1 Sc2"
_cell_length_a       3.4737010548221963
_cell_length_b       3.473701054823146
_cell_length_c       28.66641326250623
_cell_angle_alpha    90.0
_cell_angle_beta     90.0
_cell_angle_gamma    119.99999999999096

_space_group_name_H-M_alt    "P 1"
_space_group_IT_number       1

loop_
  _space_group_symop_operation_xyz
  'x, y, z'

loop_
  _atom_site_type_symbol
  _atom_site_label
  _atom_site_symmetry_multiplicity
  _atom_site_fract_x
  _atom_site_fract_y
  _atom_site_fract_z
  _atom_site_occupancy
  C   C1        1.0  0.0  0.0  0.486425964440544  1.0000
  C   C2        1.0  0.33333298543221446  0.6666669831836742  0.644508384562284  1.0000
  C   C3        1.0  0.6666669847440474  0.3333329859851446  0.3554379475043357  1.0000
  N   N1        1.0  0.33333298543221446  0.6666669831836742  0.6860437363549975  1.0000
  N   N2        1.0  0.6666669847440474  0.3333329859851446  0.3139562636450025  1.0000
  O   O1        1.0  0.6666669847440474  0.3333329859851446  0.40209516012382973  1.0000
  S   S1        1.0  0.33333298543221446  0.6666669831836742  0.5861964344697026  1.0000
  Sc  Sc1       1.0  0.33333298543221446  0.6666669831836742  0.4433194987256578  1.0000
  Sc  Sc2       1.0  0.6666669847440474  0.3333329859851446  0.5288959443460952  1.0000
