data_image0
_chemical_formula_structural       CHf2O2P2
_chemical_formula_sum              "C1 Hf2 O2 P2"
_cell_length_a       3.2631809463894954
_cell_length_b       3.2631809463842716
_cell_length_c       27.49334207622993
_cell_angle_alpha    90.0
_cell_angle_beta     90.0
_cell_angle_gamma    120.00000000005296

_space_group_name_H-M_alt    "P 1"
_space_group_IT_number       1

loop_
  _space_group_symop_operation_xyz
  'x, y, z'

loop_
  _atom_site_type_symbol
  _atom_site_label
  _atom_site_symmetry_multiplicity
  _atom_site_fract_x
  _atom_site_fract_y
  _atom_site_fract_z
  _atom_site_occupancy
  C   C1        1.0  0.0  0.0  0.5000000319090262  1.0000
  Hf  Hf1       1.0  0.3333329854322145  0.6666669831836742  0.4533578921317389  1.0000
  Hf  Hf2       1.0  0.6666669847440474  0.3333329859851447  0.5466421073919983  1.0000
  O   O1        1.0  0.3333329854322145  0.6666669831836742  0.6726480187441024  1.0000
  O   O2        1.0  0.6666669847440474  0.3333329859851447  0.32735198125589754  1.0000
  P   P1        1.0  0.3333329854322145  0.6666669831836742  0.618341094404447  1.0000
  P   P2        1.0  0.6666669847440474  0.3333329859851447  0.3816589055955531  1.0000
