data_image0
_chemical_formula_structural       CN2OSY2
_chemical_formula_sum              "C1 N2 O1 S1 Y2"
_cell_length_a       3.6533745089195713
_cell_length_b       3.653374508927005
_cell_length_c       26.098063627046237
_cell_angle_alpha    90.0
_cell_angle_beta     90.0
_cell_angle_gamma    119.9999999999327

_space_group_name_H-M_alt    "P 1"
_space_group_IT_number       1

loop_
  _space_group_symop_operation_xyz
  'x, y, z'

loop_
  _atom_site_type_symbol
  _atom_site_label
  _atom_site_symmetry_multiplicity
  _atom_site_fract_x
  _atom_site_fract_y
  _atom_site_fract_z
  _atom_site_occupancy
  C   C1        1.0  0.3333329854322145  0.6666669831836741  0.6095507868574008  1.0000
  N   N1        1.0  0.0  0.0  0.4356489862609649  1.0000
  N   N2        1.0  0.3333329854322145  0.6666669831836741  0.6551468289519757  1.0000
  O   O1        1.0  0.6666669847440473  0.3333329859851445  0.3448531710480244  1.0000
  S   S1        1.0  0.3333329854322145  0.6666669831836741  0.5455451474807596  1.0000
  Y   Y1        1.0  0.3333329854322145  0.6666669831836741  0.3691424673364794  1.0000
  Y   Y2        1.0  0.6666669847440473  0.3333329859851445  0.4760122656802145  1.0000
