data_image0
_chemical_formula_structural       CN3O2Zr2
_chemical_formula_sum              "C1 N3 O2 Zr2"
_cell_length_a       3.3604465381167263
_cell_length_b       3.360446538116071
_cell_length_c       26.86435185223221
_cell_angle_alpha    90.0
_cell_angle_beta     90.0
_cell_angle_gamma    120.00000000000645

_space_group_name_H-M_alt    "P 1"
_space_group_IT_number       1

loop_
  _space_group_symop_operation_xyz
  'x, y, z'

loop_
  _atom_site_type_symbol
  _atom_site_label
  _atom_site_symmetry_multiplicity
  _atom_site_fract_x
  _atom_site_fract_y
  _atom_site_fract_z
  _atom_site_occupancy
  C   C1        1.0  0.6666669847440472  0.3333329859851446  0.3792373860573862  1.0000
  N   N1        1.0  0.0  0.0  0.5229319104388569  1.0000
  N   N2        1.0  0.3333329854322146  0.6666669831836742  0.6160164669714248  1.0000
  N   N3        1.0  0.6666669847440472  0.3333329859851446  0.3350164578510824  1.0000
  O   O1        1.0  0.3333329854322146  0.6666669831836742  0.6649835421489176  1.0000
  O   O2        1.0  0.6666669847440472  0.3333329859851446  0.4290350892255179  1.0000
  Zr  Zr1       1.0  0.3333329854322146  0.6666669831836742  0.48142730195372413  1.0000
  Zr  Zr2       1.0  0.6666669847440472  0.3333329859851446  0.5733340424316684  1.0000
