data_image0
_chemical_formula_structural       C2N3OSSc2
_chemical_formula_sum              "C2 N3 O1 S1 Sc2"
_cell_length_a       3.400199302093437
_cell_length_b       3.4001993020759533
_cell_length_c       28.60959631139936
_cell_angle_alpha    90.0
_cell_angle_beta     90.0
_cell_angle_gamma    120.00000000017009

_space_group_name_H-M_alt    "P 1"
_space_group_IT_number       1

loop_
  _space_group_symop_operation_xyz
  'x, y, z'

loop_
  _atom_site_type_symbol
  _atom_site_label
  _atom_site_symmetry_multiplicity
  _atom_site_fract_x
  _atom_site_fract_y
  _atom_site_fract_z
  _atom_site_occupancy
  C   C1        1.0  0.33333298543221457  0.6666669831836742  0.6438082975340074  1.0000
  C   C2        1.0  0.6666669847440474  0.3333329859851446  0.35612064013034084  1.0000
  N   N1        1.0  0.0  0.0  0.48533900985249967  1.0000
  N   N2        1.0  0.33333298543221457  0.6666669831836742  0.6854202379495304  1.0000
  N   N3        1.0  0.6666669847440474  0.3333329859851446  0.3145797620504694  1.0000
  O   O1        1.0  0.6666669847440474  0.3333329859851446  0.4028798961677654  1.0000
  S   S1        1.0  0.33333298543221457  0.6666669831836742  0.5852541516314796  1.0000
  Sc  Sc1       1.0  0.33333298543221457  0.6666669831836742  0.44550371283175816  1.0000
  Sc  Sc2       1.0  0.6666669847440474  0.3333329859851446  0.5284825468223923  1.0000
