data_image0
_chemical_formula_structural       BrCN2OZr2
_chemical_formula_sum              "Br1 C1 N2 O1 Zr2"
_cell_length_a       3.4583475155254764
_cell_length_b       3.4583475155209684
_cell_length_c       26.087912332054845
_cell_angle_alpha    90.0
_cell_angle_beta     90.0
_cell_angle_gamma    120.00000000004312

_space_group_name_H-M_alt    "P 1"
_space_group_IT_number       1

loop_
  _space_group_symop_operation_xyz
  'x, y, z'

loop_
  _atom_site_type_symbol
  _atom_site_label
  _atom_site_symmetry_multiplicity
  _atom_site_fract_x
  _atom_site_fract_y
  _atom_site_fract_z
  _atom_site_occupancy
  Br  Br1       1.0  0.33333298543221457  0.6666669831836742  0.6550126401282987  1.0000
  C   C1        1.0  0.6666669847440475  0.3333329859851446  0.3905377697195465  1.0000
  N   N1        1.0  0.0  0.0  0.5354795153334694  1.0000
  N   N2        1.0  0.6666669847440475  0.3333329859851446  0.34498735987170137  1.0000
  O   O1        1.0  0.6666669847440475  0.3333329859851446  0.441718930152452  1.0000
  Zr  Zr1       1.0  0.33333298543221457  0.6666669831836742  0.4934385786218691  1.0000
  Zr  Zr2       1.0  0.6666669847440475  0.3333329859851446  0.5799454802164309  1.0000
