data_image0
_chemical_formula_structural       BrFNTi2
_chemical_formula_sum              "Br1 F1 N1 Ti2"
_cell_length_a       3.28111896346227
_cell_length_b       3.2811189634589377
_cell_length_c       23.033104315960333
_cell_angle_alpha    90.0
_cell_angle_beta     90.0
_cell_angle_gamma    120.00000000003361

_space_group_name_H-M_alt    "P 1"
_space_group_IT_number       1

loop_
  _space_group_symop_operation_xyz
  'x, y, z'

loop_
  _atom_site_type_symbol
  _atom_site_label
  _atom_site_symmetry_multiplicity
  _atom_site_fract_x
  _atom_site_fract_y
  _atom_site_fract_z
  _atom_site_occupancy
  Br  Br1       1.0  0.6666669847440474  0.3333329859851446  0.39074194587672784  1.0000
  F   F1        1.0  0.33333298543221457  0.6666669831836742  0.6092580541232722  1.0000
  N   N1        1.0  0.0  0.0  0.5155189722479188  1.0000
  Ti  Ti1       1.0  0.33333298543221457  0.6666669831836742  0.4707403585866251  1.0000
  Ti  Ti2       1.0  0.6666669847440474  0.3333329859851446  0.5582553539388565  1.0000
