data_image0
_chemical_formula_structural       C2ClNO2Ti2
_chemical_formula_sum              "C2 Cl1 N1 O2 Ti2"
_cell_length_a       3.0998404449478776
_cell_length_b       3.0998404449477763
_cell_length_c       30.275339237483472
_cell_angle_alpha    90.0
_cell_angle_beta     90.0
_cell_angle_gamma    120.00000000000108

_space_group_name_H-M_alt    "P 1"
_space_group_IT_number       1

loop_
  _space_group_symop_operation_xyz
  'x, y, z'

loop_
  _atom_site_type_symbol
  _atom_site_label
  _atom_site_symmetry_multiplicity
  _atom_site_fract_x
  _atom_site_fract_y
  _atom_site_fract_z
  _atom_site_occupancy
  C   C1        1.0  0.0  0.0  0.460284320755347  1.0000
  C   C2        1.0  0.6666669847440475  0.3333329859851446  0.3370055335885346  1.0000
  Cl  Cl1       1.0  0.3333329854322146  0.6666669831836742  0.7027283516328952  1.0000
  N   N1        1.0  0.6666669847440475  0.3333329859851446  0.3781743405871191  1.0000
  O   O1        1.0  0.3333329854322146  0.6666669831836742  0.5338512759893114  1.0000
  O   O2        1.0  0.6666669847440475  0.3333329859851446  0.2972716483671048  1.0000
  Ti  Ti1       1.0  0.3333329854322146  0.6666669831836742  0.42272236059642004  1.0000
  Ti  Ti2       1.0  0.6666669847440475  0.3333329859851446  0.5044501762347843  1.0000
