data_image0
_chemical_formula_structural       C2N3O2Ti2
_chemical_formula_sum              "C2 N3 O2 Ti2"
_cell_length_a       3.1734780399298983
_cell_length_b       3.1734780398830282
_cell_length_c       27.664117055631937
_cell_angle_alpha    90.0
_cell_angle_beta     90.0
_cell_angle_gamma    120.00000000048857

_space_group_name_H-M_alt    "P 1"
_space_group_IT_number       1

loop_
  _space_group_symop_operation_xyz
  'x, y, z'

loop_
  _atom_site_type_symbol
  _atom_site_label
  _atom_site_symmetry_multiplicity
  _atom_site_fract_x
  _atom_site_fract_y
  _atom_site_fract_z
  _atom_site_occupancy
  C   C1        1.0  0.3333329854322145  0.6666669831836742  0.6311527090742909  1.0000
  C   C2        1.0  0.6666669847440474  0.3333329859851447  0.368847290425268  1.0000
  N   N1        1.0  0.0  0.0  0.5000000335301619  1.0000
  N   N2        1.0  0.3333329854322145  0.6666669831836742  0.5860889301238432  1.0000
  N   N3        1.0  0.6666669847440474  0.3333329859851447  0.4139110698761654  1.0000
  O   O1        1.0  0.3333329854322145  0.6666669831836742  0.6746688144103354  1.0000
  O   O2        1.0  0.6666669847440474  0.3333329859851447  0.3253311855896646  1.0000
  Ti  Ti1       1.0  0.3333329854322145  0.6666669831836742  0.46220240230026727  1.0000
  Ti  Ti2       1.0  0.6666669847440474  0.3333329859851447  0.5377975971992827  1.0000
