data_image0
_chemical_formula_structural       CClHHf2O
_chemical_formula_sum              "C1 Cl1 H1 Hf2 O1"
_cell_length_a       3.345292479949833
_cell_length_b       3.3452924799428168
_cell_length_c       24.493018399819782
_cell_angle_alpha    90.0
_cell_angle_beta     90.0
_cell_angle_gamma    120.00000000006938

_space_group_name_H-M_alt    "P 1"
_space_group_IT_number       1

loop_
  _space_group_symop_operation_xyz
  'x, y, z'

loop_
  _atom_site_type_symbol
  _atom_site_label
  _atom_site_symmetry_multiplicity
  _atom_site_fract_x
  _atom_site_fract_y
  _atom_site_fract_z
  _atom_site_occupancy
  C   C1        1.0  0.0  0.0  0.5098760179274409  1.0000
  Cl  Cl1       1.0  0.3333329854322145  0.6666669831836742  0.6325483510000456  1.0000
  H   H1        1.0  0.6666669847440473  0.3333329859851446  0.3674516489999543  1.0000
  Hf  Hf1       1.0  0.3333329854322145  0.6666669831836742  0.46165843236844967  1.0000
  Hf  Hf2       1.0  0.6666669847440473  0.3333329859851446  0.5587119492356796  1.0000
  O   O1        1.0  0.6666669847440473  0.3333329859851446  0.407888301472743  1.0000
