data_image0
_chemical_formula_structural       C2HNOSc2
_chemical_formula_sum              "C2 H1 N1 O1 Sc2"
_cell_length_a       3.336660929029575
_cell_length_b       3.3366609290246654
_cell_length_c       25.30370316582547
_cell_angle_alpha    90.0
_cell_angle_beta     90.0
_cell_angle_gamma    120.00000000004869

_space_group_name_H-M_alt    "P 1"
_space_group_IT_number       1

loop_
  _space_group_symop_operation_xyz
  'x, y, z'

loop_
  _atom_site_type_symbol
  _atom_site_label
  _atom_site_symmetry_multiplicity
  _atom_site_fract_x
  _atom_site_fract_y
  _atom_site_fract_z
  _atom_site_occupancy
  C   C1        1.0  0.0  0.0  0.444586431444089  1.0000
  C   C2        1.0  0.3333329854322144  0.6666669831836742  0.5967118377744488  1.0000
  H   H1        1.0  0.6666669847440474  0.3333329859851446  0.3556791644693006  1.0000
  N   N1        1.0  0.3333329854322144  0.6666669831836742  0.5475087635419604  1.0000
  O   O1        1.0  0.3333329854322144  0.6666669831836742  0.6443208355306996  1.0000
  Sc  Sc1       1.0  0.3333329854322144  0.6666669831836742  0.39526236689137423  1.0000
  Sc  Sc2       1.0  0.6666669847440474  0.3333329859851446  0.4943905260478818  1.0000
