data_image0
_chemical_formula_structural       BrCNOY2
_chemical_formula_sum              "Br1 C1 N1 O1 Y2"
_cell_length_a       3.7272476660634366
_cell_length_b       3.72724766609883
_cell_length_c       25.202503527287128
_cell_angle_alpha    90.0
_cell_angle_beta     90.0
_cell_angle_gamma    119.99999999968588

_space_group_name_H-M_alt    "P 1"
_space_group_IT_number       1

loop_
  _space_group_symop_operation_xyz
  'x, y, z'

loop_
  _atom_site_type_symbol
  _atom_site_label
  _atom_site_symmetry_multiplicity
  _atom_site_fract_x
  _atom_site_fract_y
  _atom_site_fract_z
  _atom_site_occupancy
  Br  Br1       1.0  0.6666669847440473  0.3333329859851446  0.3571073798384976  1.0000
  C   C1        1.0  0.0  0.0  0.4872889885287638  1.0000
  N   N1        1.0  0.3333329854322144  0.6666669831836741  0.5914043570253189  1.0000
  O   O1        1.0  0.3333329854322144  0.6666669831836741  0.6428926201615024  1.0000
  Y   Y1        1.0  0.3333329854322144  0.6666669831836741  0.4346620909045106  1.0000
  Y   Y2        1.0  0.6666669847440473  0.3333329859851446  0.5426769301955061  1.0000
