data_image0
_chemical_formula_structural       BrNOSc2
_chemical_formula_sum              "Br1 N1 O1 Sc2"
_cell_length_a       3.3629634930580887
_cell_length_b       3.3629634930519514
_cell_length_c       23.150682792928848
_cell_angle_alpha    90.0
_cell_angle_beta     90.0
_cell_angle_gamma    120.00000000006037

_space_group_name_H-M_alt    "P 1"
_space_group_IT_number       1

loop_
  _space_group_symop_operation_xyz
  'x, y, z'

loop_
  _atom_site_type_symbol
  _atom_site_label
  _atom_site_symmetry_multiplicity
  _atom_site_fract_x
  _atom_site_fract_y
  _atom_site_fract_z
  _atom_site_occupancy
  Br  Br1       1.0  0.6666669847440474  0.33333298598514444  0.3887574323617341  1.0000
  N   N1        1.0  0.0  0.0  0.5138919925926576  1.0000
  O   O1        1.0  0.33333298543221457  0.6666669831836741  0.6112425676382658  1.0000
  Sc  Sc1       1.0  0.33333298543221457  0.6666669831836741  0.4714995848741584  1.0000
  Sc  Sc2       1.0  0.6666669847440474  0.33333298598514444  0.5828378222022119  1.0000
