data_image0
_chemical_formula_structural       FHf2NOP
_chemical_formula_sum              "F1 Hf2 N1 O1 P1"
_cell_length_a       3.333301977746191
_cell_length_b       3.3333019777446204
_cell_length_c       25.044474168484747
_cell_angle_alpha    90.0
_cell_angle_beta     90.0
_cell_angle_gamma    120.00000000001559

_space_group_name_H-M_alt    "P 1"
_space_group_IT_number       1

loop_
  _space_group_symop_operation_xyz
  'x, y, z'

loop_
  _atom_site_type_symbol
  _atom_site_label
  _atom_site_symmetry_multiplicity
  _atom_site_fract_x
  _atom_site_fract_y
  _atom_site_fract_z
  _atom_site_occupancy
  F   F1        1.0  0.6666669847440475  0.3333329859851446  0.3593607092507993  1.0000
  Hf  Hf1       1.0  0.3333329854322145  0.6666669831836742  0.4114639386720159  1.0000
  Hf  Hf2       1.0  0.6666669847440475  0.3333329859851446  0.5051636143140685  1.0000
  N   N1        1.0  0.0  0.0  0.4518365880760684  1.0000
  O   O1        1.0  0.3333329854322145  0.6666669831836742  0.6406392907492008  1.0000
  P   P1        1.0  0.3333329854322145  0.6666669831836742  0.5808594540605645  1.0000
