data_image0
_chemical_formula_structural       CHf2NO2
_chemical_formula_sum              "C1 Hf2 N1 O2"
_cell_length_a       3.2836847557013793
_cell_length_b       3.283684755700836
_cell_length_c       24.144549438616494
_cell_angle_alpha    90.0
_cell_angle_beta     90.0
_cell_angle_gamma    120.00000000000549

_space_group_name_H-M_alt    "P 1"
_space_group_IT_number       1

loop_
  _space_group_symop_operation_xyz
  'x, y, z'

loop_
  _atom_site_type_symbol
  _atom_site_label
  _atom_site_symmetry_multiplicity
  _atom_site_fract_x
  _atom_site_fract_y
  _atom_site_fract_z
  _atom_site_occupancy
  C   C1        1.0  0.0  0.0  0.46839160308931743  1.0000
  Hf  Hf1       1.0  0.33333298543221457  0.6666669831836742  0.4111668985276898  1.0000
  Hf  Hf2       1.0  0.6666669847440474  0.3333329859851446  0.5232143669375073  1.0000
  N   N1        1.0  0.33333298543221457  0.6666669831836742  0.5725088528800392  1.0000
  O   O1        1.0  0.33333298543221457  0.6666669831836742  0.627245063202318  1.0000
  O   O2        1.0  0.6666669847440474  0.3333329859851446  0.372754936797682  1.0000
