data_image0
_chemical_formula_structural       CFN2OSc2
_chemical_formula_sum              "C1 F1 N2 O1 Sc2"
_cell_length_a       3.3202403561728437
_cell_length_b       3.320240356173197
_cell_length_c       25.340471715633406
_cell_angle_alpha    90.0
_cell_angle_beta     90.0
_cell_angle_gamma    119.9999999999965

_space_group_name_H-M_alt    "P 1"
_space_group_IT_number       1

loop_
  _space_group_symop_operation_xyz
  'x, y, z'

loop_
  _atom_site_type_symbol
  _atom_site_label
  _atom_site_symmetry_multiplicity
  _atom_site_fract_x
  _atom_site_fract_y
  _atom_site_fract_z
  _atom_site_occupancy
  C   C1        1.0  0.6666669847440474  0.3333329859851446  0.40203949601750194  1.0000
  F   F1        1.0  0.3333329854322146  0.6666669831836742  0.644836919336131  1.0000
  N   N1        1.0  0.0  0.0  0.5519397375535955  1.0000
  N   N2        1.0  0.6666669847440474  0.3333329859851446  0.3551630806638691  1.0000
  O   O1        1.0  0.6666669847440474  0.3333329859851446  0.4548095162281838  1.0000
  Sc  Sc1       1.0  0.3333329854322146  0.6666669831836742  0.5040869319719018  1.0000
  Sc  Sc2       1.0  0.6666669847440474  0.3333329859851446  0.5992888880650395  1.0000
