data_image0
_chemical_formula_structural       CN2OSY2
_chemical_formula_sum              "C1 N2 O1 S1 Y2"
_cell_length_a       3.593156523346378
_cell_length_b       3.5931565233396685
_cell_length_c       25.76645694195055
_cell_angle_alpha    90.0
_cell_angle_beta     90.0
_cell_angle_gamma    120.00000000006177

_space_group_name_H-M_alt    "P 1"
_space_group_IT_number       1

loop_
  _space_group_symop_operation_xyz
  'x, y, z'

loop_
  _atom_site_type_symbol
  _atom_site_label
  _atom_site_symmetry_multiplicity
  _atom_site_fract_x
  _atom_site_fract_y
  _atom_site_fract_z
  _atom_site_occupancy
  C   C1        1.0  0.3333329854322145  0.6666669831836742  0.5901989228947985  1.0000
  N   N1        1.0  0.0  0.0  0.44353833940739534  1.0000
  N   N2        1.0  0.3333329854322145  0.6666669831836742  0.5418894724604317  1.0000
  O   O1        1.0  0.6666669847440476  0.3333329859851446  0.3492913294317558  1.0000
  S   S1        1.0  0.3333329854322145  0.6666669831836742  0.6507086705682444  1.0000
  Y   Y1        1.0  0.3333329854322145  0.6666669831836742  0.3762377168033308  1.0000
  Y   Y2        1.0  0.6666669847440476  0.3333329859851446  0.48597326791955664  1.0000
