data_image0
_chemical_formula_structural       CO2Zr2
_chemical_formula_sum              "C1 O2 Zr2"
_cell_length_a       3.328317104181005
_cell_length_b       3.328317104153512
_cell_length_c       22.661841717864323
_cell_angle_alpha    90.0
_cell_angle_beta     90.0
_cell_angle_gamma    120.00000000027326

_space_group_name_H-M_alt    "P 1"
_space_group_IT_number       1

loop_
  _space_group_symop_operation_xyz
  'x, y, z'

loop_
  _atom_site_type_symbol
  _atom_site_label
  _atom_site_symmetry_multiplicity
  _atom_site_fract_x
  _atom_site_fract_y
  _atom_site_fract_z
  _atom_site_occupancy
  C   C1        1.0  0.0  0.0  0.5000000372116393  1.0000
  O   O1        1.0  0.33333298543221446  0.6666669831836743  0.602856638394694  1.0000
  O   O2        1.0  0.6666669847440474  0.3333329859851446  0.39714336160530594  1.0000
  Zr  Zr1       1.0  0.33333298543221446  0.6666669831836743  0.4381188195392486  1.0000
  Zr  Zr2       1.0  0.6666669847440474  0.3333329859851446  0.5618811799053436  1.0000
