data_image0
_chemical_formula_structural       CN2O2PZr2
_chemical_formula_sum              "C1 N2 O2 P1 Zr2"
_cell_length_a       3.320331114184674
_cell_length_b       3.320331114178355
_cell_length_c       27.835082496847537
_cell_angle_alpha    90.0
_cell_angle_beta     90.0
_cell_angle_gamma    120.00000000006297

_space_group_name_H-M_alt    "P 1"
_space_group_IT_number       1

loop_
  _space_group_symop_operation_xyz
  'x, y, z'

loop_
  _atom_site_type_symbol
  _atom_site_label
  _atom_site_symmetry_multiplicity
  _atom_site_fract_x
  _atom_site_fract_y
  _atom_site_fract_z
  _atom_site_occupancy
  C   C1        1.0  0.3333329854322145  0.6666669831836742  0.6334148994684223  1.0000
  N   N1        1.0  0.0  0.0  0.4935091833432514  1.0000
  N   N2        1.0  0.3333329854322145  0.6666669831836742  0.5885639209914082  1.0000
  O   O1        1.0  0.3333329854322145  0.6666669831836742  0.6766670261882897  1.0000
  O   O2        1.0  0.6666669847440472  0.3333329859851446  0.3233329738117103  1.0000
  P   P1        1.0  0.6666669847440472  0.3333329859851446  0.3770042908841922  1.0000
  Zr  Zr1       1.0  0.3333329854322145  0.6666669831836742  0.44768846081622526  1.0000
  Zr  Zr2       1.0  0.6666669847440472  0.3333329859851446  0.5361311718702805  1.0000
