data_image0
_chemical_formula_structural       Cl2NO2Ti2
_chemical_formula_sum              "Cl2 N1 O2 Ti2"
_cell_length_a       3.0484777794683975
_cell_length_b       3.0484777794843345
_cell_length_c       32.887161417981
_cell_angle_alpha    90.0
_cell_angle_beta     90.0
_cell_angle_gamma    119.99999999982707

_space_group_name_H-M_alt    "P 1"
_space_group_IT_number       1

loop_
  _space_group_symop_operation_xyz
  'x, y, z'

loop_
  _atom_site_type_symbol
  _atom_site_label
  _atom_site_symmetry_multiplicity
  _atom_site_fract_x
  _atom_site_fract_y
  _atom_site_fract_z
  _atom_site_occupancy
  Cl  Cl1       1.0  0.3333329854322145  0.6666669831836742  0.7263369773507037  1.0000
  Cl  Cl2       1.0  0.6666669847440474  0.3333329859851446  0.2736630226492963  1.0000
  N   N1        1.0  0.0  0.0  0.5000000305654645  1.0000
  O   O1        1.0  0.3333329854322145  0.6666669831836742  0.565998102304758  1.0000
  O   O2        1.0  0.6666669847440474  0.3333329859851446  0.4340018976952502  1.0000
  Ti  Ti1       1.0  0.3333329854322145  0.6666669831836742  0.461184058814392  1.0000
  Ti  Ti2       1.0  0.6666669847440474  0.3333329859851446  0.5388159407294072  1.0000
