data_image0
_chemical_formula_structural       CH2Sc2
_chemical_formula_sum              "C1 H2 Sc2"
_cell_length_a       3.2937190861788896
_cell_length_b       3.2937190861764165
_cell_length_c       32.13035437364748
_cell_angle_alpha    90.0
_cell_angle_beta     90.0
_cell_angle_gamma    120.00000000002485

_space_group_name_H-M_alt    "P 1"
_space_group_IT_number       1

loop_
  _space_group_symop_operation_xyz
  'x, y, z'

loop_
  _atom_site_type_symbol
  _atom_site_label
  _atom_site_symmetry_multiplicity
  _atom_site_fract_x
  _atom_site_fract_y
  _atom_site_fract_z
  _atom_site_occupancy
  C   C1        1.0  1.0095261550730959e-32  3.442562865533915e-32  0.5000000267999951  1.0000
  H   H1        1.0  0.3333329854322145  0.6666669831836742  0.5709718664428891  1.0000
  H   H2        1.0  0.6666669847440474  0.3333329859851446  0.4290281335571109  1.0000
  Sc  Sc1       1.0  0.3333329854322145  0.6666669831836742  0.4608176044015693  1.0000
  Sc  Sc2       1.0  0.6666669847440474  0.3333329859851446  0.5391823951984236  1.0000
