data_image0
_chemical_formula_structural       BrCFSc2
_chemical_formula_sum              "Br1 C1 F1 Sc2"
_cell_length_a       3.4366226870533927
_cell_length_b       3.436622687049241
_cell_length_c       23.43373245908103
_cell_angle_alpha    90.0
_cell_angle_beta     90.0
_cell_angle_gamma    120.00000000003996

_space_group_name_H-M_alt    "P 1"
_space_group_IT_number       1

loop_
  _space_group_symop_operation_xyz
  'x, y, z'

loop_
  _atom_site_type_symbol
  _atom_site_label
  _atom_site_symmetry_multiplicity
  _atom_site_fract_x
  _atom_site_fract_y
  _atom_site_fract_z
  _atom_site_occupancy
  Br  Br1       1.0  0.6666669847440474  0.3333329859851446  0.3840617373145917  1.0000
  C   C1        1.0  0.0  0.0  0.5160189414199643  1.0000
  F   F1        1.0  0.33333298543221446  0.6666669831836743  0.6159382626854083  1.0000
  Sc  Sc1       1.0  0.33333298543221446  0.6666669831836743  0.4639823825072028  1.0000
  Sc  Sc2       1.0  0.6666669847440474  0.3333329859851446  0.569500041013425  1.0000
