data_image0
_chemical_formula_structural       CClHf2N2O
_chemical_formula_sum              "C1 Cl1 Hf2 N2 O1"
_cell_length_a       3.366452568157365
_cell_length_b       3.3664525681554984
_cell_length_c       25.871031261039732
_cell_angle_alpha    90.0
_cell_angle_beta     90.0
_cell_angle_gamma    120.00000000001833

_space_group_name_H-M_alt    "P 1"
_space_group_IT_number       1

loop_
  _space_group_symop_operation_xyz
  'x, y, z'

loop_
  _atom_site_type_symbol
  _atom_site_label
  _atom_site_symmetry_multiplicity
  _atom_site_fract_x
  _atom_site_fract_y
  _atom_site_fract_z
  _atom_site_occupancy
  C   C1        1.0  0.6666669847440473  0.3333329859851446  0.3937797891933845  1.0000
  Cl  Cl1       1.0  0.33333298543221446  0.6666669831836743  0.6521205548712132  1.0000
  Hf  Hf1       1.0  0.33333298543221446  0.6666669831836743  0.4976347568762887  1.0000
  Hf  Hf2       1.0  0.6666669847440473  0.3333329859851446  0.5836816982609465  1.0000
  N   N1        1.0  0.0  0.0  0.5393705440421949  1.0000
  N   N2        1.0  0.6666669847440473  0.3333329859851446  0.3478794451287869  1.0000
  O   O1        1.0  0.6666669847440473  0.3333329859851446  0.445565606254964  1.0000
