data_image0
_chemical_formula_structural       FNOTi2
_chemical_formula_sum              "F1 N1 O1 Ti2"
_cell_length_a       3.1602927240039884
_cell_length_b       3.16029272400304
_cell_length_c       22.419172188274192
_cell_angle_alpha    90.0
_cell_angle_beta     90.0
_cell_angle_gamma    120.00000000000993

_space_group_name_H-M_alt    "P 1"
_space_group_IT_number       1

loop_
  _space_group_symop_operation_xyz
  'x, y, z'

loop_
  _atom_site_type_symbol
  _atom_site_label
  _atom_site_symmetry_multiplicity
  _atom_site_fract_x
  _atom_site_fract_y
  _atom_site_fract_z
  _atom_site_occupancy
  F   F1        1.0  0.6666669847440472  0.3333329859851446  0.4014421194689441  1.0000
  N   N1        1.0  0.0  0.0  0.5029400973388031  1.0000
  O   O1        1.0  0.3333329854322144  0.6666669831836742  0.5985578805310559  1.0000
  Ti  Ti1       1.0  0.3333329854322144  0.6666669831836742  0.4552627018825776  1.0000
  Ti  Ti2       1.0  0.6666669847440472  0.3333329859851446  0.5593467457729651  1.0000
