data_image0
_chemical_formula_structural       C2N2OSY2
_chemical_formula_sum              "C2 N2 O1 S1 Y2"
_cell_length_a       3.756157369144227
_cell_length_b       3.7561573691956767
_cell_length_c       27.812862848815357
_cell_angle_alpha    90.0
_cell_angle_beta     90.0
_cell_angle_gamma    119.9999999995469

_space_group_name_H-M_alt    "P 1"
_space_group_IT_number       1

loop_
  _space_group_symop_operation_xyz
  'x, y, z'

loop_
  _atom_site_type_symbol
  _atom_site_label
  _atom_site_symmetry_multiplicity
  _atom_site_fract_x
  _atom_site_fract_y
  _atom_site_fract_z
  _atom_site_occupancy
  C   C1        1.0  0.0  0.0  0.536549039260699  1.0000
  C   C2        1.0  0.6666669847440476  0.3333329859851447  0.3663914471546905  1.0000
  N   N1        1.0  0.3333329854322147  0.6666669831836743  0.6297213852171113  1.0000
  N   N2        1.0  0.6666669847440476  0.3333329859851447  0.3235912839653378  1.0000
  O   O1        1.0  0.3333329854322147  0.6666669831836743  0.6764087160346622  1.0000
  S   S1        1.0  0.6666669847440476  0.3333329859851447  0.4265861471261116  1.0000
  Y   Y1        1.0  0.3333329854322147  0.6666669831836743  0.48930203904861563  1.0000
  Y   Y2        1.0  0.6666669847440476  0.3333329859851447  0.5867973278648672  1.0000
