data_image0
_chemical_formula_structural       BrCFTi2
_chemical_formula_sum              "Br1 C1 F1 Ti2"
_cell_length_a       3.285558835255781
_cell_length_b       3.285558835254148
_cell_length_c       23.22561668989177
_cell_angle_alpha    90.0
_cell_angle_beta     90.0
_cell_angle_gamma    120.00000000001646

_space_group_name_H-M_alt    "P 1"
_space_group_IT_number       1

loop_
  _space_group_symop_operation_xyz
  'x, y, z'

loop_
  _atom_site_type_symbol
  _atom_site_label
  _atom_site_symmetry_multiplicity
  _atom_site_fract_x
  _atom_site_fract_y
  _atom_site_fract_z
  _atom_site_occupancy
  Br  Br1       1.0  0.6666669847440476  0.3333329859851446  0.38750316601569396  1.0000
  C   C1        1.0  0.0  0.0  0.5136599446986034  1.0000
  F   F1        1.0  0.3333329854322146  0.6666669831836742  0.6124968339843062  1.0000
  Ti  Ti1       1.0  0.3333329854322146  0.6666669831836742  0.4667616830263669  1.0000
  Ti  Ti2       1.0  0.6666669847440476  0.3333329859851446  0.5602870973715401  1.0000
