data_image0
_chemical_formula_structural       C2HNSSc2
_chemical_formula_sum              "C2 H1 N1 S1 Sc2"
_cell_length_a       3.3775846716816558
_cell_length_b       3.3775846716595797
_cell_length_c       25.601636401785694
_cell_angle_alpha    90.0
_cell_angle_beta     90.0
_cell_angle_gamma    120.00000000021622

_space_group_name_H-M_alt    "P 1"
_space_group_IT_number       1

loop_
  _space_group_symop_operation_xyz
  'x, y, z'

loop_
  _atom_site_type_symbol
  _atom_site_label
  _atom_site_symmetry_multiplicity
  _atom_site_fract_x
  _atom_site_fract_y
  _atom_site_fract_z
  _atom_site_occupancy
  C   C1        1.0  0.0  0.0  0.43878540851430775  1.0000
  C   C2        1.0  0.33333298543221446  0.6666669831836742  0.5877207940380567  1.0000
  H   H1        1.0  0.6666669847440472  0.3333329859851446  0.3515400288776955  1.0000
  N   N1        1.0  0.33333298543221446  0.6666669831836742  0.5390477917641001  1.0000
  S   S1        1.0  0.33333298543221446  0.6666669831836742  0.6484599711223048  1.0000
  Sc  Sc1       1.0  0.33333298543221446  0.6666669831836742  0.39049282481568814  1.0000
  Sc  Sc2       1.0  0.6666669847440472  0.3333329859851446  0.48790991073209833  1.0000
