data_image0
_chemical_formula_structural       C2N3S2Ti2
_chemical_formula_sum              "C2 N3 S2 Ti2"
_cell_length_a       3.379389050497117
_cell_length_b       3.379389050489625
_cell_length_c       28.81295998324265
_cell_angle_alpha    90.0
_cell_angle_beta     90.0
_cell_angle_gamma    120.00000000007334

_space_group_name_H-M_alt    "P 1"
_space_group_IT_number       1

loop_
  _space_group_symop_operation_xyz
  'x, y, z'

loop_
  _atom_site_type_symbol
  _atom_site_label
  _atom_site_symmetry_multiplicity
  _atom_site_fract_x
  _atom_site_fract_y
  _atom_site_fract_z
  _atom_site_occupancy
  C   C1        1.0  0.33333298543221457  0.6666669831836742  0.6463008061428394  1.0000
  C   C2        1.0  0.6666669847440474  0.3333329859851446  0.3536991942808862  1.0000
  N   N1        1.0  0.0  0.0  0.5000000286014539  1.0000
  N   N2        1.0  0.33333298543221457  0.6666669831836742  0.6876405615655482  1.0000
  N   N3        1.0  0.6666669847440474  0.3333329859851446  0.3123594384344516  1.0000
  S   S1        1.0  0.33333298543221457  0.6666669831836742  0.58809198506241  1.0000
  S   S2        1.0  0.6666669847440474  0.3333329859851446  0.41190801536131577  1.0000
  Ti  Ti1       1.0  0.33333298543221457  0.6666669831836742  0.4654225196265133  1.0000
  Ti  Ti2       1.0  0.6666669847440474  0.3333329859851446  0.5345774803734793  1.0000
