data_image0
_chemical_formula_structural       CFHLa2
_chemical_formula_sum              "C1 F1 H1 La2"
_cell_length_a       3.8770008657478066
_cell_length_b       3.877000865749727
_cell_length_c       23.18979088533145
_cell_angle_alpha    89.99999999999999
_cell_angle_beta     90.0
_cell_angle_gamma    119.99999999998357

_space_group_name_H-M_alt    "P 1"
_space_group_IT_number       1

loop_
  _space_group_symop_operation_xyz
  'x, y, z'

loop_
  _atom_site_type_symbol
  _atom_site_label
  _atom_site_symmetry_multiplicity
  _atom_site_fract_x
  _atom_site_fract_y
  _atom_site_fract_z
  _atom_site_occupancy
  C   C1        1.0  4.237512448865532e-32  5.29378373473769e-32  0.4967684461172859  1.0000
  F   F1        1.0  0.33333298543221457  0.6666669831836743  0.6104621636539016  1.0000
  H   H1        1.0  0.6666669847440474  0.33333298598514466  0.3864092362984659  1.0000
  La  La1       1.0  0.33333298543221457  0.6666669831836743  0.4320577378213136  1.0000
  La  La2       1.0  0.6666669847440474  0.33333298598514466  0.5610912404082442  1.0000
