data_image0
_chemical_formula_structural       C3N2O2Ti2
_chemical_formula_sum              "C3 N2 O2 Ti2"
_cell_length_a       3.1743186071469194
_cell_length_b       3.1743186071562075
_cell_length_c       27.81294518126335
_cell_angle_alpha    90.0
_cell_angle_beta     90.0
_cell_angle_gamma    119.99999999990322

_space_group_name_H-M_alt    "P 1"
_space_group_IT_number       1

loop_
  _space_group_symop_operation_xyz
  'x, y, z'

loop_
  _atom_site_type_symbol
  _atom_site_label
  _atom_site_symmetry_multiplicity
  _atom_site_fract_x
  _atom_site_fract_y
  _atom_site_fract_z
  _atom_site_occupancy
  C   C1        1.0  0.0  0.0  0.5000000333330804  1.0000
  C   C2        1.0  0.3333329854322145  0.6666669831836742  0.6331192235378297  1.0000
  C   C3        1.0  0.6666669847440473  0.3333329859851447  0.3668807759646702  1.0000
  N   N1        1.0  0.3333329854322145  0.6666669831836742  0.5882938954997383  1.0000
  N   N2        1.0  0.6666669847440473  0.3333329859851447  0.4117061045002705  1.0000
  O   O1        1.0  0.3333329854322145  0.6666669831836742  0.6764096739361857  1.0000
  O   O2        1.0  0.6666669847440473  0.3333329859851447  0.3235903260638143  1.0000
  Ti  Ti1       1.0  0.3333329854322145  0.6666669831836742  0.4598289934845223  1.0000
  Ti  Ti2       1.0  0.6666669847440473  0.3333329859851447  0.5401710060179692  1.0000
