data_image0
_chemical_formula_structural       C3N2SSc2
_chemical_formula_sum              "C3 N2 S1 Sc2"
_cell_length_a       3.4276307235223276
_cell_length_b       3.427630723496024
_cell_length_c       27.197956888454407
_cell_angle_alpha    90.0
_cell_angle_beta     90.0
_cell_angle_gamma    120.00000000025385

_space_group_name_H-M_alt    "P 1"
_space_group_IT_number       1

loop_
  _space_group_symop_operation_xyz
  'x, y, z'

loop_
  _atom_site_type_symbol
  _atom_site_label
  _atom_site_symmetry_multiplicity
  _atom_site_fract_x
  _atom_site_fract_y
  _atom_site_fract_z
  _atom_site_occupancy
  C   C1        1.0  0.0  0.0  0.5274166632297176  1.0000
  C   C2        1.0  0.3333329854322145  0.6666669831836742  0.6250185464485  1.0000
  C   C3        1.0  0.6666669847440474  0.33333298598514444  0.38809889642877343  1.0000
  N   N1        1.0  0.3333329854322145  0.6666669831836742  0.6690927911640113  1.0000
  N   N2        1.0  0.6666669847440474  0.33333298598514444  0.4339681500888868  1.0000
  S   S1        1.0  0.6666669847440474  0.33333298598514444  0.3309072088359887  1.0000
  Sc  Sc1       1.0  0.3333329854322145  0.6666669831836742  0.48140098620462196  1.0000
  Sc  Sc2       1.0  0.6666669847440474  0.33333298598514444  0.572735003095033  1.0000
