data_image0
_chemical_formula_structural       CNO2Zr2
_chemical_formula_sum              "C1 N1 O2 Zr2"
_cell_length_a       3.337380249392129
_cell_length_b       3.3373802493881057
_cell_length_c       24.225946792567054
_cell_angle_alpha    90.0
_cell_angle_beta     90.0
_cell_angle_gamma    120.00000000003989

_space_group_name_H-M_alt    "P 1"
_space_group_IT_number       1

loop_
  _space_group_symop_operation_xyz
  'x, y, z'

loop_
  _atom_site_type_symbol
  _atom_site_label
  _atom_site_symmetry_multiplicity
  _atom_site_fract_x
  _atom_site_fract_y
  _atom_site_fract_z
  _atom_site_occupancy
  C   C1        1.0  0.0  0.0  0.4684334483254872  1.0000
  N   N1        1.0  0.3333329854322145  0.6666669831836742  0.574543822250046  1.0000
  O   O1        1.0  0.3333329854322145  0.6666669831836742  0.6284974916744488  1.0000
  O   O2        1.0  0.6666669847440473  0.3333329859851446  0.3715025083255512  1.0000
  Zr  Zr1       1.0  0.3333329854322145  0.6666669831836742  0.4100943343146414  1.0000
  Zr  Zr2       1.0  0.6666669847440473  0.3333329859851446  0.5233280970511458  1.0000
