data_image0
_chemical_formula_structural       C2NO2PSc2
_chemical_formula_sum              "C2 N1 O2 P1 Sc2"
_cell_length_a       3.353475592930445
_cell_length_b       3.3534755929250237
_cell_length_c       27.780982502515634
_cell_angle_alpha    90.0
_cell_angle_beta     90.0
_cell_angle_gamma    120.00000000005348

_space_group_name_H-M_alt    "P 1"
_space_group_IT_number       1

loop_
  _space_group_symop_operation_xyz
  'x, y, z'

loop_
  _atom_site_type_symbol
  _atom_site_label
  _atom_site_symmetry_multiplicity
  _atom_site_fract_x
  _atom_site_fract_y
  _atom_site_fract_z
  _atom_site_occupancy
  C   C1        1.0  0.0  0.0  0.4942480256135184  1.0000
  C   C2        1.0  0.3333329854322145  0.6666669831836742  0.6326997076361643  1.0000
  N   N1        1.0  0.3333329854322145  0.6666669831836742  0.5878300848685699  1.0000
  O   O1        1.0  0.3333329854322145  0.6666669831836742  0.6760373755973164  1.0000
  O   O2        1.0  0.6666669847440474  0.3333329859851446  0.3239626244026838  1.0000
  P   P1        1.0  0.6666669847440474  0.3333329859851446  0.3777594934606697  1.0000
  Sc  Sc1       1.0  0.3333329854322145  0.6666669831836742  0.4509918384092707  1.0000
  Sc  Sc2       1.0  0.6666669847440474  0.3333329859851446  0.539924929933249  1.0000
