data_image0
_chemical_formula_structural       C2NO2PSc2
_chemical_formula_sum              "C2 N1 O2 P1 Sc2"
_cell_length_a       3.3556326560556613
_cell_length_b       3.3556326560495875
_cell_length_c       27.746392086565418
_cell_angle_alpha    90.0
_cell_angle_beta     90.0
_cell_angle_gamma    120.00000000005988

_space_group_name_H-M_alt    "P 1"
_space_group_IT_number       1

loop_
  _space_group_symop_operation_xyz
  'x, y, z'

loop_
  _atom_site_type_symbol
  _atom_site_label
  _atom_site_symmetry_multiplicity
  _atom_site_fract_x
  _atom_site_fract_y
  _atom_site_fract_z
  _atom_site_occupancy
  C   C1        1.0  0.0  0.0  0.505121933083693  1.0000
  C   C2        1.0  0.6666669847440473  0.3333329859851446  0.3671958835701334  1.0000
  N   N1        1.0  0.6666669847440473  0.3333329859851446  0.3243664968014969  1.0000
  O   O1        1.0  0.3333329854322145  0.6666669831836742  0.6756335031985031  1.0000
  O   O2        1.0  0.6666669847440473  0.3333329859851446  0.4154068608446357  1.0000
  P   P1        1.0  0.3333329854322145  0.6666669831836742  0.621780834087099  1.0000
  Sc  Sc1       1.0  0.3333329854322145  0.6666669831836742  0.4595454673558783  1.0000
  Sc  Sc2       1.0  0.6666669847440473  0.3333329859851446  0.5485453815667951  1.0000
