data_image0
_chemical_formula_structural       HNOZr2
_chemical_formula_sum              "H1 N1 O1 Zr2"
_cell_length_a       3.259244139497967
_cell_length_b       3.2592441394934237
_cell_length_c       22.62129979381976
_cell_angle_alpha    90.0
_cell_angle_beta     90.0
_cell_angle_gamma    120.00000000004613

_space_group_name_H-M_alt    "P 1"
_space_group_IT_number       1

loop_
  _space_group_symop_operation_xyz
  'x, y, z'

loop_
  _atom_site_type_symbol
  _atom_site_label
  _atom_site_symmetry_multiplicity
  _atom_site_fract_x
  _atom_site_fract_y
  _atom_site_fract_z
  _atom_site_occupancy
  H   H1        1.0  0.6666669847440474  0.3333329859851446  0.3978551224743877  1.0000
  N   N1        1.0  0.0  0.0  0.500327702244546  1.0000
  O   O1        1.0  0.33333298543221446  0.6666669831836742  0.6021448775256124  1.0000
  Zr  Zr1       1.0  0.33333298543221446  0.6666669831836742  0.441058837348936  1.0000
  Zr  Zr2       1.0  0.6666669847440474  0.3333329859851446  0.5580863670379922  1.0000
