data_image0
_chemical_formula_structural       CN2OSc2
_chemical_formula_sum              "C1 N2 O1 Sc2"
_cell_length_a       3.307988331830425
_cell_length_b       3.3079883318224548
_cell_length_c       24.002885650123154
_cell_angle_alpha    90.0
_cell_angle_beta     90.0
_cell_angle_gamma    120.00000000007971

_space_group_name_H-M_alt    "P 1"
_space_group_IT_number       1

loop_
  _space_group_symop_operation_xyz
  'x, y, z'

loop_
  _atom_site_type_symbol
  _atom_site_label
  _atom_site_symmetry_multiplicity
  _atom_site_fract_x
  _atom_site_fract_y
  _atom_site_fract_z
  _atom_site_occupancy
  C   C1        1.0  0.3333329854322145  0.6666669831836742  0.575187039480944  1.0000
  N   N1        1.0  0.0  0.0  0.4702653715157575  1.0000
  N   N2        1.0  0.3333329854322145  0.6666669831836742  0.6250450828626173  1.0000
  O   O1        1.0  0.6666669847440474  0.3333329859851446  0.3749549171373827  1.0000
  Sc  Sc1       1.0  0.3333329854322145  0.6666669831836742  0.4035944326106161  1.0000
  Sc  Sc2       1.0  0.6666669847440474  0.3333329859851446  0.5122832961041903  1.0000
