data_image0
_chemical_formula_structural       HN2OTi2
_chemical_formula_sum              "H1 N2 O1 Ti2"
_cell_length_a       3.078109638916497
_cell_length_b       3.078109638913811
_cell_length_c       23.729036201326398
_cell_angle_alpha    90.0
_cell_angle_beta     90.0
_cell_angle_gamma    120.00000000002888

_space_group_name_H-M_alt    "P 1"
_space_group_IT_number       1

loop_
  _space_group_symop_operation_xyz
  'x, y, z'

loop_
  _atom_site_type_symbol
  _atom_site_label
  _atom_site_symmetry_multiplicity
  _atom_site_fract_x
  _atom_site_fract_y
  _atom_site_fract_z
  _atom_site_occupancy
  H   H1        1.0  0.6666669847440474  0.3333329859851446  0.3792821555684138  1.0000
  N   N1        1.0  0.0  0.0  0.4664546496710567  1.0000
  N   N2        1.0  0.3333329854322145  0.6666669831836742  0.56608294610498  1.0000
  O   O1        1.0  0.3333329854322145  0.6666669831836742  0.6207178444315862  1.0000
  Ti  Ti1       1.0  0.3333329854322145  0.6666669831836742  0.4198220625353417  1.0000
  Ti  Ti2       1.0  0.6666669847440474  0.3333329859851446  0.5170926284368322  1.0000
