data_image0
_chemical_formula_structural       CBrFY2
_chemical_formula_sum              "C1 Br1 F1 Y2"
_cell_length_a       3.6691145406082817
_cell_length_b       3.6691145406272825
_cell_length_c       25.892029266707745
_cell_angle_alpha    90.0
_cell_angle_beta     90.0
_cell_angle_gamma    119.9999999998287

_space_group_name_H-M_alt    "P 1"
_space_group_IT_number       1

loop_
  _space_group_symop_operation_xyz
  'x, y, z'

loop_
  _atom_site_type_symbol
  _atom_site_label
  _atom_site_symmetry_multiplicity
  _atom_site_fract_x
  _atom_site_fract_y
  _atom_site_fract_z
  _atom_site_occupancy
  C   C1        1.0  0.0  0.0  0.4936895785150727  1.0000
  Br  Br1       1.0  0.6666669847440474  0.3333329859851446  0.6217150276931573  1.0000
  F   F1        1.0  0.3333329854322145  0.6666669831836742  0.39764666875627214  1.0000
  Y   Y1        1.0  0.3333329854322145  0.6666669831836742  0.5454768671364989  1.0000
  Y   Y2        1.0  0.6666669847440474  0.3333329859851446  0.4410286466404785  1.0000
