data_image0
_chemical_formula_structural       CH2O2Ti2
_chemical_formula_sum              "C1 H2 O2 Ti2"
_cell_length_a       3.112633898835962
_cell_length_b       3.112633898823855
_cell_length_c       24.771857749604834
_cell_angle_alpha    90.0
_cell_angle_beta     90.0
_cell_angle_gamma    120.00000000012867

_space_group_name_H-M_alt    "P 1"
_space_group_IT_number       1

loop_
  _space_group_symop_operation_xyz
  'x, y, z'

loop_
  _atom_site_type_symbol
  _atom_site_label
  _atom_site_symmetry_multiplicity
  _atom_site_fract_x
  _atom_site_fract_y
  _atom_site_fract_z
  _atom_site_occupancy
  C   C1        1.0  0.0  0.0  0.5000000389232229  1.0000
  H   H1        1.0  0.33333298543221446  0.6666669831836742  0.6366844953264124  1.0000
  H   H2        1.0  0.6666669847440474  0.3333329859851446  0.3633155046735876  1.0000
  O   O1        1.0  0.33333298543221446  0.6666669831836742  0.5968341796196854  1.0000
  O   O2        1.0  0.6666669847440474  0.3333329859851446  0.4031658203803248  1.0000
  Ti  Ti1       1.0  0.33333298543221446  0.6666669831836742  0.45409248936612434  1.0000
  Ti  Ti2       1.0  0.6666669847440474  0.3333329859851446  0.5459075100529319  1.0000
