data_image0
_chemical_formula_structural       BrCOZr2
_chemical_formula_sum              "Br1 C1 O1 Zr2"
_cell_length_a       3.3920986467740675
_cell_length_b       3.3920986467709846
_cell_length_c       23.55996253587232
_cell_angle_alpha    90.0
_cell_angle_beta     90.0
_cell_angle_gamma    120.00000000003007

_space_group_name_H-M_alt    "P 1"
_space_group_IT_number       1

loop_
  _space_group_symop_operation_xyz
  'x, y, z'

loop_
  _atom_site_type_symbol
  _atom_site_label
  _atom_site_symmetry_multiplicity
  _atom_site_fract_x
  _atom_site_fract_y
  _atom_site_fract_z
  _atom_site_occupancy
  Br  Br1       1.0  0.6666669847440474  0.3333329859851446  0.38200400303254434  1.0000
  C   C1        1.0  0.0  0.0  0.5181590550369756  1.0000
  O   O1        1.0  0.3333329854322145  0.6666669831836742  0.6179959969674557  1.0000
  Zr  Zr1       1.0  0.3333329854322145  0.6666669831836742  0.4660951851766746  1.0000
  Zr  Zr2       1.0  0.6666669847440474  0.3333329859851446  0.5785017648149651  1.0000
