data_image0
_chemical_formula_structural       C2FNSSc2
_chemical_formula_sum              "C2 F1 N1 S1 Sc2"
_cell_length_a       3.397800961913495
_cell_length_b       3.397800961903622
_cell_length_c       25.702141356220576
_cell_angle_alpha    90.0
_cell_angle_beta     90.0
_cell_angle_gamma    120.00000000009612

_space_group_name_H-M_alt    "P 1"
_space_group_IT_number       1

loop_
  _space_group_symop_operation_xyz
  'x, y, z'

loop_
  _atom_site_type_symbol
  _atom_site_label
  _atom_site_symmetry_multiplicity
  _atom_site_fract_x
  _atom_site_fract_y
  _atom_site_fract_z
  _atom_site_occupancy
  C   C1        1.0  0.0  0.0  0.4416529427707023  1.0000
  C   C2        1.0  0.3333329854322147  0.6666669831836742  0.5893162141336813  1.0000
  F   F1        1.0  0.6666669847440474  0.3333329859851446  0.3501653763110196  1.0000
  N   N1        1.0  0.3333329854322147  0.6666669831836742  0.5408315323506142  1.0000
  S   S1        1.0  0.3333329854322147  0.6666669831836742  0.6498346236889803  1.0000
  Sc  Sc1       1.0  0.3333329854322147  0.6666669831836742  0.39298162005646525  1.0000
  Sc  Sc2       1.0  0.6666669847440474  0.3333329859851446  0.4900866922813523  1.0000
