data_image0
_chemical_formula_structural       CFHSc2
_chemical_formula_sum              "C1 F1 H1 Sc2"
_cell_length_a       3.2886969526806666
_cell_length_b       3.288696952678392
_cell_length_c       32.228561134026826
_cell_angle_alpha    90.0
_cell_angle_beta     90.0
_cell_angle_gamma    120.0000000000229

_space_group_name_H-M_alt    "P 1"
_space_group_IT_number       1

loop_
  _space_group_symop_operation_xyz
  'x, y, z'

loop_
  _atom_site_type_symbol
  _atom_site_label
  _atom_site_symmetry_multiplicity
  _atom_site_fract_x
  _atom_site_fract_y
  _atom_site_fract_z
  _atom_site_occupancy
  C   C1        1.0  0.0  0.0  0.4977609689588145  1.0000
  F   F1        1.0  0.3333329854322145  0.6666669831836742  0.5727803925788102  1.0000
  H   H1        1.0  0.6666669847440474  0.33333298598514466  0.4271193704715636  1.0000
  Sc  Sc1       1.0  0.3333329854322145  0.6666669831836742  0.4589150972321567  1.0000
  Sc  Sc2       1.0  0.6666669847440474  0.33333298598514466  0.5373383445496456  1.0000
