data_image0
_chemical_formula_structural       ClNO2PSc2
_chemical_formula_sum              "Cl1 N1 O2 P1 Sc2"
_cell_length_a       3.4028465256647737
_cell_length_b       3.4028465256684286
_cell_length_c       27.28086331487483
_cell_angle_alpha    90.0
_cell_angle_beta     90.0
_cell_angle_gamma    119.99999999996447

_space_group_name_H-M_alt    "P 1"
_space_group_IT_number       1

loop_
  _space_group_symop_operation_xyz
  'x, y, z'

loop_
  _atom_site_type_symbol
  _atom_site_label
  _atom_site_symmetry_multiplicity
  _atom_site_fract_x
  _atom_site_fract_y
  _atom_site_fract_z
  _atom_site_occupancy
  Cl  Cl1       1.0  0.3333329854322145  0.6666669831836742  0.6700984167501484  1.0000
  N   N1        1.0  0.0  0.0  0.4720035945443524  1.0000
  O   O1        1.0  0.3333329854322145  0.6666669831836742  0.5704414115385412  1.0000
  O   O2        1.0  0.6666669847440474  0.3333329859851446  0.3299015832498515  1.0000
  P   P1        1.0  0.6666669847440474  0.3333329859851446  0.3842469327767534  1.0000
  Sc  Sc1       1.0  0.3333329854322145  0.6666669831836742  0.4894973891157185  1.0000
  Sc  Sc2       1.0  0.6666669847440474  0.3333329859851446  0.6041357159736205  1.0000
