data_image0
_chemical_formula_structural       CH2O2Y2
_chemical_formula_sum              "C1 H2 O2 Y2"
_cell_length_a       3.5993766632717117
_cell_length_b       3.599376663281281
_cell_length_c       25.331714091885704
_cell_angle_alpha    90.0
_cell_angle_beta     90.0
_cell_angle_gamma    119.99999999991205

_space_group_name_H-M_alt    "P 1"
_space_group_IT_number       1

loop_
  _space_group_symop_operation_xyz
  'x, y, z'

loop_
  _atom_site_type_symbol
  _atom_site_label
  _atom_site_symmetry_multiplicity
  _atom_site_fract_x
  _atom_site_fract_y
  _atom_site_fract_z
  _atom_site_occupancy
  C   C1        1.0  0.0  0.0  0.5000000284645478  1.0000
  H   H1        1.0  0.3333329854322145  0.6666669831836742  0.6447141331473146  1.0000
  H   H2        1.0  0.6666669847440475  0.3333329859851446  0.35528586685268543  1.0000
  O   O1        1.0  0.3333329854322145  0.6666669831836742  0.6058298180680302  1.0000
  O   O2        1.0  0.6666669847440475  0.3333329859851446  0.3941701819319775  1.0000
  Y   Y1        1.0  0.3333329854322145  0.6666669831836742  0.4456405457432535  1.0000
  Y   Y2        1.0  0.6666669847440475  0.3333329859851446  0.5543594538319025  1.0000
