data_image0
_chemical_formula_structural       C2ClHf2NO
_chemical_formula_sum              "C2 Cl1 Hf2 N1 O1"
_cell_length_a       3.2766290152442
_cell_length_b       3.276629015244055
_cell_length_c       27.703200766684148
_cell_angle_alpha    90.0
_cell_angle_beta     90.0
_cell_angle_gamma    120.00000000000146

_space_group_name_H-M_alt    "P 1"
_space_group_IT_number       1

loop_
  _space_group_symop_operation_xyz
  'x, y, z'

loop_
  _atom_site_type_symbol
  _atom_site_label
  _atom_site_symmetry_multiplicity
  _atom_site_fract_x
  _atom_site_fract_y
  _atom_site_fract_z
  _atom_site_occupancy
  C   C1        1.0  0.0  0.0  0.5334318324948253  1.0000
  C   C2        1.0  0.3333329854322144  0.6666669831836742  0.6314230254608061  1.0000
  Cl  Cl1       1.0  0.6666669847440474  0.3333329859851446  0.3248722079371924  1.0000
  Hf  Hf1       1.0  0.3333329854322144  0.6666669831836742  0.4821354758032317  1.0000
  Hf  Hf2       1.0  0.6666669847440474  0.3333329859851446  0.5787974716762545  1.0000
  N   N1        1.0  0.3333329854322144  0.6666669831836742  0.6751277920628076  1.0000
  O   O1        1.0  0.6666669847440474  0.3333329859851446  0.4501475910922054  1.0000
