data_image0
_chemical_formula_structural       C2NO2Ti2
_chemical_formula_sum              "C2 N1 O2 Ti2"
_cell_length_a       3.113067428438631
_cell_length_b       3.113067428436071
_cell_length_c       25.157327123728116
_cell_angle_alpha    90.0
_cell_angle_beta     90.0
_cell_angle_gamma    120.00000000002719

_space_group_name_H-M_alt    "P 1"
_space_group_IT_number       1

loop_
  _space_group_symop_operation_xyz
  'x, y, z'

loop_
  _atom_site_type_symbol
  _atom_site_label
  _atom_site_symmetry_multiplicity
  _atom_site_fract_x
  _atom_site_fract_y
  _atom_site_fract_z
  _atom_site_occupancy
  C   C1        1.0  0.0  0.0  0.44629763406219664  1.0000
  C   C2        1.0  0.3333329854322145  0.6666669831836742  0.5944110366623061  1.0000
  N   N1        1.0  0.3333329854322145  0.6666669831836742  0.5448748871086616  1.0000
  O   O1        1.0  0.3333329854322145  0.6666669831836742  0.6422513426908816  1.0000
  O   O2        1.0  0.6666669847440474  0.3333329859851446  0.3577486573091185  1.0000
  Ti  Ti1       1.0  0.3333329854322145  0.6666669831836742  0.3934436765953115  1.0000
  Ti  Ti2       1.0  0.6666669847440474  0.3333329859851446  0.49135648166979873  1.0000
