data_image0
_chemical_formula_structural       CClOLa2
_chemical_formula_sum              "C1 Cl1 O1 La2"
_cell_length_a       3.955478858604443
_cell_length_b       3.955478858605728
_cell_length_c       22.278733226230667
_cell_angle_alpha    90.0
_cell_angle_beta     90.0
_cell_angle_gamma    119.99999999998929

_space_group_name_H-M_alt    "P 1"
_space_group_IT_number       1

loop_
  _space_group_symop_operation_xyz
  'x, y, z'

loop_
  _atom_site_type_symbol
  _atom_site_label
  _atom_site_symmetry_multiplicity
  _atom_site_fract_x
  _atom_site_fract_y
  _atom_site_fract_z
  _atom_site_occupancy
  C   C1        1.0  0.0  0.0  0.5060734174967735  1.0000
  Cl  Cl1       1.0  0.6666669847440474  0.3333329859851446  0.37160461535748884  1.0000
  O   O1        1.0  0.3333329854322145  0.6666669831836742  0.6145340880424719  1.0000
  La  La1       1.0  0.3333329854322145  0.6666669831836742  0.454684360477708  1.0000
  La  La2       1.0  0.6666669847440474  0.3333329859851446  0.5923531636217905  1.0000
