data_image0
_chemical_formula_structural       Cl2NSc2
_chemical_formula_sum              "Cl2 N1 Sc2"
_cell_length_a       3.370931517671379
_cell_length_b       3.370931517667914
_cell_length_c       23.755131558251243
_cell_angle_alpha    90.0
_cell_angle_beta     90.0
_cell_angle_gamma    120.000000000034

_space_group_name_H-M_alt    "P 1"
_space_group_IT_number       1

loop_
  _space_group_symop_operation_xyz
  'x, y, z'

loop_
  _atom_site_type_symbol
  _atom_site_label
  _atom_site_symmetry_multiplicity
  _atom_site_fract_x
  _atom_site_fract_y
  _atom_site_fract_z
  _atom_site_occupancy
  Cl  Cl1       1.0  0.3333329854322145  0.6666669831836742  0.6211344913863933  1.0000
  Cl  Cl2       1.0  0.6666669847440474  0.3333329859851446  0.3788655086136068  1.0000
  N   N1        1.0  0.0  0.0  0.5000000346071711  1.0000
  Sc  Sc1       1.0  0.3333329854322145  0.6666669831836742  0.4499318484695847  1.0000
  Sc  Sc2       1.0  0.6666669847440474  0.3333329859851446  0.5500681510138812  1.0000
