data_image0
_chemical_formula_structural       BrNOPTi2
_chemical_formula_sum              "Br1 N1 O1 P1 Ti2"
_cell_length_a       3.238709202851363
_cell_length_b       3.2387092028482014
_cell_length_c       25.242578369354554
_cell_angle_alpha    90.0
_cell_angle_beta     90.0
_cell_angle_gamma    120.0000000000323

_space_group_name_H-M_alt    "P 1"
_space_group_IT_number       1

loop_
  _space_group_symop_operation_xyz
  'x, y, z'

loop_
  _atom_site_type_symbol
  _atom_site_label
  _atom_site_symmetry_multiplicity
  _atom_site_fract_x
  _atom_site_fract_y
  _atom_site_fract_z
  _atom_site_occupancy
  Br  Br1       1.0  0.6666669847440474  0.3333329859851446  0.35654044005767427  1.0000
  N   N1        1.0  0.0  0.0  0.4697370053077312  1.0000
  O   O1        1.0  0.3333329854322145  0.6666669831836742  0.6434595599423258  1.0000
  P   P1        1.0  0.3333329854322145  0.6666669831836742  0.5843081751437131  1.0000
  Ti  Ti1       1.0  0.3333329854322145  0.6666669831836742  0.4300117184301885  1.0000
  Ti  Ti2       1.0  0.6666669847440474  0.3333329859851446  0.51176870862854  1.0000
