data_image0
_chemical_formula_structural       BrCFY2
_chemical_formula_sum              "Br1 C1 F1 Y2"
_cell_length_a       3.6794304689134556
_cell_length_b       3.679430468933935
_cell_length_c       23.818530448727476
_cell_angle_alpha    90.0
_cell_angle_beta     90.0
_cell_angle_gamma    119.99999999981587

_space_group_name_H-M_alt    "P 1"
_space_group_IT_number       1

loop_
  _space_group_symop_operation_xyz
  'x, y, z'

loop_
  _atom_site_type_symbol
  _atom_site_label
  _atom_site_symmetry_multiplicity
  _atom_site_fract_x
  _atom_site_fract_y
  _atom_site_fract_z
  _atom_site_occupancy
  Br  Br1       1.0  0.6666669847440475  0.3333329859851447  0.37785706466541613  1.0000
  C   C1        1.0  0.0  0.0  0.5173008647680742  1.0000
  F   F1        1.0  0.3333329854322145  0.6666669831836742  0.6221429353345838  1.0000
  Y   Y1        1.0  0.3333329854322145  0.6666669831836742  0.460863872696979  1.0000
  Y   Y2        1.0  0.6666669847440475  0.3333329859851447  0.5746960503915768  1.0000
