data_image0
_chemical_formula_structural       CO2P2Zr2
_chemical_formula_sum              "C1 O2 P2 Zr2"
_cell_length_a       3.3034493637023226
_cell_length_b       3.303449363690172
_cell_length_c       27.618125974024455
_cell_angle_alpha    90.0
_cell_angle_beta     90.0
_cell_angle_gamma    120.00000000012169

_space_group_name_H-M_alt    "P 1"
_space_group_IT_number       1

loop_
  _space_group_symop_operation_xyz
  'x, y, z'

loop_
  _atom_site_type_symbol
  _atom_site_label
  _atom_site_symmetry_multiplicity
  _atom_site_fract_x
  _atom_site_fract_y
  _atom_site_fract_z
  _atom_site_occupancy
  C   C1        1.0  0.0  0.0  0.50000003099516  1.0000
  O   O1        1.0  0.3333329854322145  0.6666669831836742  0.6741270566849928  1.0000
  O   O2        1.0  0.6666669847440472  0.3333329859851446  0.3258729433150072  1.0000
  P   P1        1.0  0.3333329854322145  0.6666669831836742  0.6201069105497307  1.0000
  P   P2        1.0  0.6666669847440472  0.3333329859851446  0.379893089450269  1.0000
  Zr  Zr1       1.0  0.3333329854322145  0.6666669831836742  0.4526979945093814  1.0000
  Zr  Zr2       1.0  0.6666669847440472  0.3333329859851446  0.5473020050279954  1.0000
