data_image0
_chemical_formula_structural       BrCN2Ti2
_chemical_formula_sum              "Br1 C1 N2 Ti2"
_cell_length_a       3.250836742977008
_cell_length_b       3.2508367429895184
_cell_length_c       24.508802388990766
_cell_angle_alpha    90.0
_cell_angle_beta     90.0
_cell_angle_gamma    119.9999999998727

_space_group_name_H-M_alt    "P 1"
_space_group_IT_number       1

loop_
  _space_group_symop_operation_xyz
  'x, y, z'

loop_
  _atom_site_type_symbol
  _atom_site_label
  _atom_site_symmetry_multiplicity
  _atom_site_fract_x
  _atom_site_fract_y
  _atom_site_fract_z
  _atom_site_occupancy
  Br  Br1       1.0  0.6666669847440474  0.3333329859851446  0.3672150053338696  1.0000
  C   C1        1.0  0.33333298543221446  0.6666669831836742  0.5837187695266555  1.0000
  N   N1        1.0  0.0  0.0  0.4842465259413238  1.0000
  N   N2        1.0  0.33333298543221446  0.6666669831836742  0.6327849946661304  1.0000
  Ti  Ti1       1.0  0.33333298543221446  0.6666669831836742  0.4429467807451243  1.0000
  Ti  Ti2       1.0  0.6666669847440474  0.3333329859851446  0.5266523244779326  1.0000
