data_image0
_chemical_formula_structural       C2HNO2Zr2
_chemical_formula_sum              "C2 H1 N1 O2 Zr2"
_cell_length_a       3.361080753675598
_cell_length_b       3.3610807536604717
_cell_length_c       26.722546701488035
_cell_angle_alpha    90.0
_cell_angle_beta     90.0
_cell_angle_gamma    120.00000000014889

_space_group_name_H-M_alt    "P 1"
_space_group_IT_number       1

loop_
  _space_group_symop_operation_xyz
  'x, y, z'

loop_
  _atom_site_type_symbol
  _atom_site_label
  _atom_site_symmetry_multiplicity
  _atom_site_fract_x
  _atom_site_fract_y
  _atom_site_fract_z
  _atom_site_occupancy
  C   C1        1.0  0.0  0.0  0.47038247288966417  1.0000
  C   C2        1.0  0.3333329854322145  0.6666669831836742  0.6180885605319107  1.0000
  H   H1        1.0  0.6666669847440474  0.3333329859851446  0.3367942472151741  1.0000
  N   N1        1.0  0.3333329854322145  0.6666669831836742  0.5714592044778647  1.0000
  O   O1        1.0  0.3333329854322145  0.6666669831836742  0.6632057527848259  1.0000
  O   O2        1.0  0.6666669847440474  0.3333329859851446  0.373719271627295  1.0000
  Zr  Zr1       1.0  0.3333329854322145  0.6666669831836742  0.42443693089808615  1.0000
  Zr  Zr2       1.0  0.6666669847440474  0.3333329859851446  0.5167414800159171  1.0000
