data_image0
_chemical_formula_structural       BrCN2STi2
_chemical_formula_sum              "Br1 C1 N2 S1 Ti2"
_cell_length_a       3.2801817951169303
_cell_length_b       3.2801817951213454
_cell_length_c       25.971171455607312
_cell_angle_alpha    90.0
_cell_angle_beta     90.0
_cell_angle_gamma    119.99999999995549

_space_group_name_H-M_alt    "P 1"
_space_group_IT_number       1

loop_
  _space_group_symop_operation_xyz
  'x, y, z'

loop_
  _atom_site_type_symbol
  _atom_site_label
  _atom_site_symmetry_multiplicity
  _atom_site_fract_x
  _atom_site_fract_y
  _atom_site_fract_z
  _atom_site_occupancy
  Br  Br1       1.0  0.6666669847440474  0.3333329859851446  0.34653808417474563  1.0000
  C   C1        1.0  0.33333298543221446  0.6666669831836742  0.593698173015112  1.0000
  N   N1        1.0  0.0  0.0  0.45647274216306327  1.0000
  N   N2        1.0  0.33333298543221446  0.6666669831836742  0.5455125965095653  1.0000
  S   S1        1.0  0.33333298543221446  0.6666669831836742  0.6534619158252544  1.0000
  Ti  Ti1       1.0  0.33333298543221446  0.6666669831836742  0.4178721926835779  1.0000
  Ti  Ti2       1.0  0.6666669847440474  0.3333329859851446  0.49642910931629775  1.0000
