data_image0
_chemical_formula_structural       C2N2OSY2
_chemical_formula_sum              "C2 N2 O1 S1 Y2"
_cell_length_a       3.6805812157589624
_cell_length_b       3.6805812157675373
_cell_length_c       27.487643180877452
_cell_angle_alpha    90.0
_cell_angle_beta     90.0
_cell_angle_gamma    119.99999999992295

_space_group_name_H-M_alt    "P 1"
_space_group_IT_number       1

loop_
  _space_group_symop_operation_xyz
  'x, y, z'

loop_
  _atom_site_type_symbol
  _atom_site_label
  _atom_site_symmetry_multiplicity
  _atom_site_fract_x
  _atom_site_fract_y
  _atom_site_fract_z
  _atom_site_occupancy
  C   C1        1.0  0.0  0.0  0.5286446382925063  1.0000
  C   C2        1.0  0.6666669847440476  0.3333329859851447  0.3841984360036283  1.0000
  N   N1        1.0  0.3333329854322146  0.6666669831836743  0.6254462684796331  1.0000
  N   N2        1.0  0.6666669847440476  0.3333329859851447  0.4295646173248706  1.0000
  O   O1        1.0  0.3333329854322146  0.6666669831836743  0.6725801502596226  1.0000
  S   S1        1.0  0.6666669847440476  0.3333329859851447  0.32741984974037713  1.0000
  Y   Y1        1.0  0.3333329854322146  0.6666669831836743  0.4794170249598582  1.0000
  Y   Y2        1.0  0.6666669847440476  0.3333329859851447  0.5793137090981624  1.0000
