data_image0
_chemical_formula_structural       CN3OTi2
_chemical_formula_sum              "C1 N3 O1 Ti2"
_cell_length_a       3.1473831240123227
_cell_length_b       3.1473831240303265
_cell_length_c       25.3970543051847
_cell_angle_alpha    90.0
_cell_angle_beta     90.0
_cell_angle_gamma    119.99999999981078

_space_group_name_H-M_alt    "P 1"
_space_group_IT_number       1

loop_
  _space_group_symop_operation_xyz
  'x, y, z'

loop_
  _atom_site_type_symbol
  _atom_site_label
  _atom_site_symmetry_multiplicity
  _atom_site_fract_x
  _atom_site_fract_y
  _atom_site_fract_z
  _atom_site_occupancy
  C   C1        1.0  0.3333329854322145  0.6666669831836742  0.5984976304022211  1.0000
  N   N1        1.0  0.0  0.0  0.5152474321686776  1.0000
  N   N2        1.0  0.3333329854322145  0.6666669831836742  0.6456281940475794  1.0000
  N   N3        1.0  0.6666669847440476  0.3333329859851446  0.4361590441762325  1.0000
  O   O1        1.0  0.6666669847440476  0.3333329859851446  0.3543718059524206  1.0000
  Ti  Ti1       1.0  0.3333329854322145  0.6666669831836742  0.3961102131734049  1.0000
  Ti  Ti2       1.0  0.6666669847440476  0.3333329859851446  0.536879236435428  1.0000
