data_image0
_chemical_formula_structural       CFN2OZr2
_chemical_formula_sum              "C1 F1 N2 O1 Zr2"
_cell_length_a       3.385701637927481
_cell_length_b       3.3857016379142304
_cell_length_c       25.502512579831965
_cell_angle_alpha    90.0
_cell_angle_beta     90.0
_cell_angle_gamma    120.00000000012948

_space_group_name_H-M_alt    "P 1"
_space_group_IT_number       1

loop_
  _space_group_symop_operation_xyz
  'x, y, z'

loop_
  _atom_site_type_symbol
  _atom_site_label
  _atom_site_symmetry_multiplicity
  _atom_site_fract_x
  _atom_site_fract_y
  _atom_site_fract_z
  _atom_site_occupancy
  C   C1        1.0  0.33333298543221457  0.6666669831836742  0.5998330877067531  1.0000
  F   F1        1.0  0.6666669847440475  0.3333329859851446  0.35290640370539134  1.0000
  N   N1        1.0  0.0  0.0  0.44797005739761175  1.0000
  N   N2        1.0  0.33333298543221457  0.6666669831836742  0.5509138554923043  1.0000
  O   O1        1.0  0.33333298543221457  0.6666669831836742  0.6470935962946085  1.0000
  Zr  Zr1       1.0  0.33333298543221457  0.6666669831836742  0.40413653670105887  1.0000
  Zr  Zr2       1.0  0.6666669847440475  0.3333329859851446  0.49455109991536217  1.0000
