data_image0
_chemical_formula_structural       CN2OPSZr2
_chemical_formula_sum              "C1 N2 O1 P1 S1 Zr2"
_cell_length_a       3.337601617179595
_cell_length_b       3.337601617175578
_cell_length_c       28.14058867783641
_cell_angle_alpha    90.0
_cell_angle_beta     90.0
_cell_angle_gamma    120.0000000000398

_space_group_name_H-M_alt    "P 1"
_space_group_IT_number       1

loop_
  _space_group_symop_operation_xyz
  'x, y, z'

loop_
  _atom_site_type_symbol
  _atom_site_label
  _atom_site_symmetry_multiplicity
  _atom_site_fract_x
  _atom_site_fract_y
  _atom_site_fract_z
  _atom_site_occupancy
  C   C1        1.0  0.3333329854322146  0.6666669831836742  0.6250901581520196  1.0000
  N   N1        1.0  0.0  0.0  0.4877569629490388  1.0000
  N   N2        1.0  0.3333329854322146  0.6666669831836742  0.5803135635469561  1.0000
  O   O1        1.0  0.6666669847440474  0.3333329859851446  0.3198227337400521  1.0000
  P   P1        1.0  0.6666669847440474  0.3333329859851446  0.3729269392204549  1.0000
  S   S1        1.0  0.3333329854322146  0.6666669831836742  0.6801772662599478  1.0000
  Zr  Zr1       1.0  0.3333329854322146  0.6666669831836742  0.4426103351022709  1.0000
  Zr  Zr2       1.0  0.6666669847440474  0.3333329859851446  0.5311087429973618  1.0000
