data_image0
_chemical_formula_structural       BrCHOZr2
_chemical_formula_sum              "Br1 C1 H1 O1 Zr2"
_cell_length_a       3.4297676128049512
_cell_length_b       3.4297676128035843
_cell_length_c       24.732098162169514
_cell_angle_alpha    90.0
_cell_angle_beta     90.0
_cell_angle_gamma    120.0000000000132

_space_group_name_H-M_alt    "P 1"
_space_group_IT_number       1

loop_
  _space_group_symop_operation_xyz
  'x, y, z'

loop_
  _atom_site_type_symbol
  _atom_site_label
  _atom_site_symmetry_multiplicity
  _atom_site_fract_x
  _atom_site_fract_y
  _atom_site_fract_z
  _atom_site_occupancy
  Br  Br1       1.0  0.3333329854322145  0.6666669831836742  0.6361004254072345  1.0000
  C   C1        1.0  0.0  0.0  0.5062857636794555  1.0000
  H   H1        1.0  0.6666669847440474  0.3333329859851446  0.3638995745927654  1.0000
  O   O1        1.0  0.6666669847440474  0.3333329859851446  0.40380343128573526  1.0000
  Zr  Zr1       1.0  0.3333329854322145  0.6666669831836742  0.45789512697550916  1.0000
  Zr  Zr2       1.0  0.6666669847440474  0.3333329859851446  0.5556570827607517  1.0000
