data_image0
_chemical_formula_structural       CF2Ti2
_chemical_formula_sum              "C1 F2 Ti2"
_cell_length_a       3.2546824312843365
_cell_length_b       3.254682431280976
_cell_length_c       22.628521219969052
_cell_angle_alpha    90.0
_cell_angle_beta     90.0
_cell_angle_gamma    120.00000000003416

_space_group_name_H-M_alt    "P 1"
_space_group_IT_number       1

loop_
  _space_group_symop_operation_xyz
  'x, y, z'

loop_
  _atom_site_type_symbol
  _atom_site_label
  _atom_site_symmetry_multiplicity
  _atom_site_fract_x
  _atom_site_fract_y
  _atom_site_fract_z
  _atom_site_occupancy
  C   C1        1.0  0.0  0.0  0.5000000389717572  1.0000
  F   F1        1.0  0.33333298543221446  0.6666669831836742  0.6022718447877298  1.0000
  F   F2        1.0  0.6666669847440473  0.3333329859851446  0.3977281552122702  1.0000
  Ti  Ti1       1.0  0.33333298543221446  0.6666669831836742  0.4512645288924161  1.0000
  Ti  Ti2       1.0  0.6666669847440473  0.3333329859851446  0.5487354705259053  1.0000
