data_image0
_chemical_formula_structural       C3N2OSSc2
_chemical_formula_sum              "C3 N2 O1 S1 Sc2"
_cell_length_a       3.4045589337878917
_cell_length_b       3.404558933757419
_cell_length_c       28.33154720868749
_cell_angle_alpha    90.0
_cell_angle_beta     90.0
_cell_angle_gamma    120.00000000029608

_space_group_name_H-M_alt    "P 1"
_space_group_IT_number       1

loop_
  _space_group_symop_operation_xyz
  'x, y, z'

loop_
  _atom_site_type_symbol
  _atom_site_label
  _atom_site_symmetry_multiplicity
  _atom_site_fract_x
  _atom_site_fract_y
  _atom_site_fract_z
  _atom_site_occupancy
  C   C1        1.0  0.0  0.0  0.49345803234936736  1.0000
  C   C2        1.0  0.3333329854322146  0.6666669831836742  0.6274638686084754  1.0000
  C   C3        1.0  0.6666669847440474  0.3333329859851446  0.3596131615712667  1.0000
  N   N1        1.0  0.3333329854322146  0.6666669831836742  0.583424306631696  1.0000
  N   N2        1.0  0.6666669847440474  0.3333329859851446  0.3176670844591316  1.0000
  O   O1        1.0  0.6666669847440474  0.3333329859851446  0.4067551771747436  1.0000
  S   S1        1.0  0.3333329854322146  0.6666669831836742  0.6823329155408684  1.0000
  Sc  Sc1       1.0  0.3333329854322146  0.6666669831836742  0.44973408563403516  1.0000
  Sc  Sc2       1.0  0.6666669847440474  0.3333329859851446  0.5377092479794796  1.0000
