data_image0
_chemical_formula_structural       C3N2O2Zr2
_chemical_formula_sum              "C3 N2 O2 Zr2"
_cell_length_a       3.3856316982252683
_cell_length_b       3.3856316981551178
_cell_length_c       28.253589980608975
_cell_angle_alpha    90.0
_cell_angle_beta     90.0
_cell_angle_gamma    120.00000000068542

_space_group_name_H-M_alt    "P 1"
_space_group_IT_number       1

loop_
  _space_group_symop_operation_xyz
  'x, y, z'

loop_
  _atom_site_type_symbol
  _atom_site_label
  _atom_site_symmetry_multiplicity
  _atom_site_fract_x
  _atom_site_fract_y
  _atom_site_fract_z
  _atom_site_occupancy
  C   C1        1.0  0.0  0.0  0.4997451492981071  1.0000
  C   C2        1.0  0.3333329854322145  0.6666669831836742  0.638834848263425  1.0000
  C   C3        1.0  0.6666669847440474  0.3333329859851446  0.3605998726818385  1.0000
  N   N1        1.0  0.3333329854322145  0.6666669831836742  0.5946606699137112  1.0000
  N   N2        1.0  0.6666669847440474  0.3333329859851446  0.3185435906083753  1.0000
  O   O1        1.0  0.3333329854322145  0.6666669831836742  0.6814564093916247  1.0000
  O   O2        1.0  0.6666669847440474  0.3333329859851446  0.4078743321107963  1.0000
  Zr  Zr1       1.0  0.3333329854322145  0.6666669831836742  0.4570586090581548  1.0000
  Zr  Zr2       1.0  0.6666669847440474  0.3333329859851446  0.5434294112921944  1.0000
