data_image0
_chemical_formula_structural       CNO2PY2
_chemical_formula_sum              "C1 N1 O2 P1 Y2"
_cell_length_a       3.6379603190966887
_cell_length_b       3.6379603191357344
_cell_length_c       26.94240292820426
_cell_angle_alpha    90.0
_cell_angle_beta     90.0
_cell_angle_gamma    119.99999999964497

_space_group_name_H-M_alt    "P 1"
_space_group_IT_number       1

loop_
  _space_group_symop_operation_xyz
  'x, y, z'

loop_
  _atom_site_type_symbol
  _atom_site_label
  _atom_site_symmetry_multiplicity
  _atom_site_fract_x
  _atom_site_fract_y
  _atom_site_fract_z
  _atom_site_occupancy
  C   C1        1.0  0.0  0.0  0.5175840044399476  1.0000
  N   N1        1.0  0.3333329854322145  0.6666669831836742  0.6177100338728587  1.0000
  O   O1        1.0  0.3333329854322145  0.6666669831836742  0.6659540715806578  1.0000
  O   O2        1.0  0.6666669847440472  0.3333329859851446  0.3340459284193423  1.0000
  P   P1        1.0  0.6666669847440472  0.3333329859851446  0.3895708228874817  1.0000
  Y   Y1        1.0  0.3333329854322145  0.6666669831836742  0.4710620240400333  1.0000
  Y   Y2        1.0  0.6666669847440472  0.3333329859851446  0.5723623116152824  1.0000
