data_image0
_chemical_formula_structural       CClN2O2Y2
_chemical_formula_sum              "C1 Cl1 N2 O2 Y2"
_cell_length_a       3.7257362859754197
_cell_length_b       3.7257362859631513
_cell_length_c       26.99111000954655
_cell_angle_alpha    90.0
_cell_angle_beta     90.0
_cell_angle_gamma    120.00000000010894

_space_group_name_H-M_alt    "P 1"
_space_group_IT_number       1

loop_
  _space_group_symop_operation_xyz
  'x, y, z'

loop_
  _atom_site_type_symbol
  _atom_site_label
  _atom_site_symmetry_multiplicity
  _atom_site_fract_x
  _atom_site_fract_y
  _atom_site_fract_z
  _atom_site_occupancy
  C   C1        1.0  0.6666669847440476  0.3333329859851446  0.3776594442591624  1.0000
  Cl  Cl1       1.0  0.3333329854322145  0.6666669831836742  0.666556877549061  1.0000
  N   N1        1.0  0.0  0.0  0.5031662959591021  1.0000
  N   N2        1.0  0.6666669847440476  0.3333329859851446  0.33344312245093927  1.0000
  O   O1        1.0  0.3333329854322145  0.6666669831836742  0.567008269472921  1.0000
  O   O2        1.0  0.6666669847440476  0.3333329859851446  0.4265477385808201  1.0000
  Y   Y1        1.0  0.3333329854322145  0.6666669831836742  0.4774512711868806  1.0000
  Y   Y2        1.0  0.6666669847440476  0.3333329859851446  0.5935728982983746  1.0000
