data_image0
_chemical_formula_structural       CHO2PSc2
_chemical_formula_sum              "C1 H1 O2 P1 Sc2"
_cell_length_a       3.3288313093288022
_cell_length_b       3.328831309325271
_cell_length_c       26.223994007036914
_cell_angle_alpha    90.0
_cell_angle_beta     90.0
_cell_angle_gamma    120.0000000000351

_space_group_name_H-M_alt    "P 1"
_space_group_IT_number       1

loop_
  _space_group_symop_operation_xyz
  'x, y, z'

loop_
  _atom_site_type_symbol
  _atom_site_label
  _atom_site_symmetry_multiplicity
  _atom_site_fract_x
  _atom_site_fract_y
  _atom_site_fract_z
  _atom_site_occupancy
  C   C1        1.0  0.0  0.0  0.47612605321222495  1.0000
  H   H1        1.0  0.6666669847440474  0.3333329859851446  0.3431971498157356  1.0000
  O   O1        1.0  0.3333329854322145  0.6666669831836742  0.6568028501842644  1.0000
  O   O2        1.0  0.6666669847440474  0.3333329859851446  0.3807031920250592  1.0000
  P   P1        1.0  0.3333329854322145  0.6666669831836742  0.599791613202916  1.0000
  Sc  Sc1       1.0  0.3333329854322145  0.6666669831836742  0.4272477024369145  1.0000
  Sc  Sc2       1.0  0.6666669847440474  0.3333329859851446  0.5220255785610952  1.0000
