data_image0
_chemical_formula_structural       CClHSc2
_chemical_formula_sum              "C1 Cl1 H1 Sc2"
_cell_length_a       3.375439460569764
_cell_length_b       3.375439460565815
_cell_length_c       30.593416690822302
_cell_angle_alpha    90.0
_cell_angle_beta     90.0
_cell_angle_gamma    120.0000000000387

_space_group_name_H-M_alt    "P 1"
_space_group_IT_number       1

loop_
  _space_group_symop_operation_xyz
  'x, y, z'

loop_
  _atom_site_type_symbol
  _atom_site_label
  _atom_site_symmetry_multiplicity
  _atom_site_fract_x
  _atom_site_fract_y
  _atom_site_fract_z
  _atom_site_occupancy
  C   C1        1.0  5.108192707650565e-33  1.753574713979373e-32  0.4883706977883051  1.0000
  Cl  Cl1       1.0  0.33333298543221446  0.6666669831836742  0.5846320671875042  1.0000
  H   H1        1.0  0.6666669847440474  0.3333329859851446  0.4153068405091111  1.0000
  Sc  Sc1       1.0  0.33333298543221446  0.6666669831836742  0.4478070333382387  1.0000
  Sc  Sc2       1.0  0.6666669847440474  0.3333329859851446  0.529099347090379  1.0000
