data_image0
_chemical_formula_structural       C2ClNO2Y2
_chemical_formula_sum              "C2 Cl1 N1 O2 Y2"
_cell_length_a       3.7507021286717475
_cell_length_b       3.7507021286561586
_cell_length_c       26.987093649453364
_cell_angle_alpha    90.0
_cell_angle_beta     90.0
_cell_angle_gamma    120.00000000013749

_space_group_name_H-M_alt    "P 1"
_space_group_IT_number       1

loop_
  _space_group_symop_operation_xyz
  'x, y, z'

loop_
  _atom_site_type_symbol
  _atom_site_label
  _atom_site_symmetry_multiplicity
  _atom_site_fract_x
  _atom_site_fract_y
  _atom_site_fract_z
  _atom_site_occupancy
  C   C1        1.0  0.0  0.0  0.5091991199984174  1.0000
  C   C2        1.0  0.6666669847440474  0.3333329859851446  0.3776986009723364  1.0000
  Cl  Cl1       1.0  0.33333298543221457  0.6666669831836742  0.6665072528037009  1.0000
  N   N1        1.0  0.6666669847440474  0.3333329859851446  0.3334927471962991  1.0000
  O   O1        1.0  0.33333298543221457  0.6666669831836742  0.5679650870878573  1.0000
  O   O2        1.0  0.6666669847440474  0.3333329859851446  0.42668547867347784  1.0000
  Y   Y1        1.0  0.33333298543221457  0.6666669831836742  0.4771275558458167  1.0000
  Y   Y2        1.0  0.6666669847440474  0.3333329859851446  0.5931851795476145  1.0000
