data_image0
_chemical_formula_structural       C2ClNO2Y2
_chemical_formula_sum              "C2 Cl1 N1 O2 Y2"
_cell_length_a       3.6661327960629855
_cell_length_b       3.6661327960735317
_cell_length_c       27.474579814446738
_cell_angle_alpha    90.0
_cell_angle_beta     90.0
_cell_angle_gamma    119.99999999990486

_space_group_name_H-M_alt    "P 1"
_space_group_IT_number       1

loop_
  _space_group_symop_operation_xyz
  'x, y, z'

loop_
  _atom_site_type_symbol
  _atom_site_label
  _atom_site_symmetry_multiplicity
  _atom_site_fract_x
  _atom_site_fract_y
  _atom_site_fract_z
  _atom_site_occupancy
  C   C1        1.0  0.0  0.0  0.5168086883361568  1.0000
  C   C2        1.0  0.6666669847440474  0.3333329859851446  0.3715136512845493  1.0000
  Cl  Cl1       1.0  0.3333329854322145  0.6666669831836742  0.6724244716103865  1.0000
  N   N1        1.0  0.6666669847440474  0.3333329859851446  0.4168556386138626  1.0000
  O   O1        1.0  0.3333329854322145  0.6666669831836742  0.608394485558353  1.0000
  O   O2        1.0  0.6666669847440474  0.3333329859851446  0.32757552838961357  1.0000
  Y   Y1        1.0  0.3333329854322145  0.6666669831836742  0.46813090809211017  1.0000
  Y   Y2        1.0  0.6666669847440474  0.3333329859851446  0.5678793063075718  1.0000
