data_image0
_chemical_formula_structural       BrC2NSTi2
_chemical_formula_sum              "Br1 C2 N1 S1 Ti2"
_cell_length_a       3.354884083534823
_cell_length_b       3.3548840835355866
_cell_length_c       26.357075053587106
_cell_angle_alpha    90.0
_cell_angle_beta     90.0
_cell_angle_gamma    119.99999999999245

_space_group_name_H-M_alt    "P 1"
_space_group_IT_number       1

loop_
  _space_group_symop_operation_xyz
  'x, y, z'

loop_
  _atom_site_type_symbol
  _atom_site_label
  _atom_site_symmetry_multiplicity
  _atom_site_fract_x
  _atom_site_fract_y
  _atom_site_fract_z
  _atom_site_occupancy
  Br  Br1       1.0  0.6666669847440474  0.3333329859851446  0.3414642930485237  1.0000
  C   C1        1.0  0.0  0.0  0.44984323985553354  1.0000
  C   C2        1.0  0.3333329854322145  0.6666669831836741  0.6133518344271024  1.0000
  N   N1        1.0  0.3333329854322145  0.6666669831836741  0.6585357069514763  1.0000
  S   S1        1.0  0.3333329854322145  0.6666669831836741  0.5496547673084382  1.0000
  Ti  Ti1       1.0  0.3333329854322145  0.6666669831836741  0.4108205092551465  1.0000
  Ti  Ti2       1.0  0.6666669847440474  0.3333329859851446  0.49135010899716736  1.0000
