data_image0
_chemical_formula_structural       CN2O2Ti2
_chemical_formula_sum              "C1 N2 O2 Ti2"
_cell_length_a       3.097166751594377
_cell_length_b       3.0971667515942136
_cell_length_c       25.093688422202458
_cell_angle_alpha    90.0
_cell_angle_beta     90.0
_cell_angle_gamma    120.00000000000175

_space_group_name_H-M_alt    "P 1"
_space_group_IT_number       1

loop_
  _space_group_symop_operation_xyz
  'x, y, z'

loop_
  _atom_site_type_symbol
  _atom_site_label
  _atom_site_symmetry_multiplicity
  _atom_site_fract_x
  _atom_site_fract_y
  _atom_site_fract_z
  _atom_site_occupancy
  C   C1        1.0  0.6666669847440476  0.3333329859851446  0.4059511739138009  1.0000
  N   N1        1.0  0.0  0.0  0.554804229457709  1.0000
  N   N2        1.0  0.6666669847440476  0.3333329859851446  0.3586559236958149  1.0000
  O   O1        1.0  0.3333329854322145  0.6666669831836742  0.6413440763041851  1.0000
  O   O2        1.0  0.6666669847440476  0.3333329859851446  0.4592553993135362  1.0000
  Ti  Ti1       1.0  0.3333329854322145  0.6666669831836742  0.5109027062727409  1.0000
  Ti  Ti2       1.0  0.6666669847440476  0.3333329859851446  0.6051245816478432  1.0000
