data_image0
_chemical_formula_structural       C3N2OY2
_chemical_formula_sum              "C3 N2 O1 Y2"
_cell_length_a       3.6720466914151184
_cell_length_b       3.672046691430547
_cell_length_c       27.254676669361366
_cell_angle_alpha    90.0
_cell_angle_beta     90.0
_cell_angle_gamma    119.99999999986102

_space_group_name_H-M_alt    "P 1"
_space_group_IT_number       1

loop_
  _space_group_symop_operation_xyz
  'x, y, z'

loop_
  _atom_site_type_symbol
  _atom_site_label
  _atom_site_symmetry_multiplicity
  _atom_site_fract_x
  _atom_site_fract_y
  _atom_site_fract_z
  _atom_site_occupancy
  C   C1        1.0  0.0  0.0  0.5214230544193363  1.0000
  C   C2        1.0  0.3333329854322147  0.6666669831836745  0.6257727991165344  1.0000
  C   C3        1.0  0.6666669847440474  0.33333298598514477  0.3744694399092284  1.0000
  N   N1        1.0  0.3333329854322147  0.6666669831836745  0.66978144304616  1.0000
  N   N2        1.0  0.6666669847440474  0.33333298598514477  0.4202317906262015  1.0000
  O   O1        1.0  0.6666669847440474  0.33333298598514477  0.33021855695383995  1.0000
  Y   Y1        1.0  0.3333329854322147  0.6666669831836745  0.47136749920662735  1.0000
  Y   Y2        1.0  0.6666669847440474  0.33333298598514477  0.5713911041834904  1.0000
