data_image0
_chemical_formula_structural       ClHNOTi2
_chemical_formula_sum              "Cl1 H1 N1 O1 Ti2"
_cell_length_a       3.178007805941452
_cell_length_b       3.1780078059338197
_cell_length_c       23.999630503836475
_cell_angle_alpha    90.0
_cell_angle_beta     90.0
_cell_angle_gamma    120.00000000007945

_space_group_name_H-M_alt    "P 1"
_space_group_IT_number       1

loop_
  _space_group_symop_operation_xyz
  'x, y, z'

loop_
  _atom_site_type_symbol
  _atom_site_label
  _atom_site_symmetry_multiplicity
  _atom_site_fract_x
  _atom_site_fract_y
  _atom_site_fract_z
  _atom_site_occupancy
  Cl  Cl1       1.0  0.33333298543221457  0.6666669831836742  0.6249942265335584  1.0000
  H   H1        1.0  0.6666669847440474  0.3333329859851446  0.3750057734664415  1.0000
  N   N1        1.0  0.0  0.0  0.5107712237199908  1.0000
  O   O1        1.0  0.6666669847440474  0.3333329859851446  0.41613733096053424  1.0000
  Ti  Ti1       1.0  0.33333298543221457  0.6666669831836742  0.4672709884141921  1.0000
  Ti  Ti2       1.0  0.6666669847440474  0.3333329859851446  0.5542318974540839  1.0000
