data_image0
_chemical_formula_structural       CH2Y2
_chemical_formula_sum              "C1 H2 Y2"
_cell_length_a       3.600007204233124
_cell_length_b       3.600007204237215
_cell_length_c       22.883687864454757
_cell_angle_alpha    90.0
_cell_angle_beta     90.0
_cell_angle_gamma    119.99999999996241

_space_group_name_H-M_alt    "P 1"
_space_group_IT_number       1

loop_
  _space_group_symop_operation_xyz
  'x, y, z'

loop_
  _atom_site_type_symbol
  _atom_site_label
  _atom_site_symmetry_multiplicity
  _atom_site_fract_x
  _atom_site_fract_y
  _atom_site_fract_z
  _atom_site_occupancy
  C   C1        1.0  0.0  0.0  0.5000000314985562  1.0000
  H   H1        1.0  0.33333298543221457  0.6666669831836742  0.6067067487850284  1.0000
  H   H2        1.0  0.6666669847440475  0.3333329859851446  0.3932932512149716  1.0000
  Y   Y1        1.0  0.33333298543221457  0.6666669831836742  0.4400759044675892  1.0000
  Y   Y2        1.0  0.6666669847440475  0.3333329859851446  0.5599240950622749  1.0000
