data_image0
_chemical_formula_structural       N3O2Ti2
_chemical_formula_sum              "N3 O2 Ti2"
_cell_length_a       3.098804164129354
_cell_length_b       3.0988041641299873
_cell_length_c       25.36460113610558
_cell_angle_alpha    90.0
_cell_angle_beta     90.0
_cell_angle_gamma    119.99999999999325

_space_group_name_H-M_alt    "P 1"
_space_group_IT_number       1

loop_
  _space_group_symop_operation_xyz
  'x, y, z'

loop_
  _atom_site_type_symbol
  _atom_site_label
  _atom_site_symmetry_multiplicity
  _atom_site_fract_x
  _atom_site_fract_y
  _atom_site_fract_z
  _atom_site_occupancy
  N   N1        1.0  0.0  0.0  0.5000000383536854  1.0000
  N   N2        1.0  0.3333329854322145  0.6666669831836742  0.5940638020595173  1.0000
  N   N3        1.0  0.6666669847440474  0.3333329859851446  0.40593619794048275  1.0000
  O   O1        1.0  0.3333329854322145  0.6666669831836742  0.6451747870307005  1.0000
  O   O2        1.0  0.6666669847440474  0.3333329859851446  0.35482521296929953  1.0000
  Ti  Ti1       1.0  0.3333329854322145  0.6666669831836742  0.45368316094900313  1.0000
  Ti  Ti2       1.0  0.6666669847440474  0.3333329859851446  0.5463168384785436  1.0000
