data_image0
_chemical_formula_structural       C2HNOSc2
_chemical_formula_sum              "C2 H1 N1 O1 Sc2"
_cell_length_a       3.362526533961078
_cell_length_b       3.362526533931979
_cell_length_c       25.353115418118076
_cell_angle_alpha    90.0
_cell_angle_beta     90.0
_cell_angle_gamma    120.00000000028626

_space_group_name_H-M_alt    "P 1"
_space_group_IT_number       1

loop_
  _space_group_symop_operation_xyz
  'x, y, z'

loop_
  _atom_site_type_symbol
  _atom_site_label
  _atom_site_symmetry_multiplicity
  _atom_site_fract_x
  _atom_site_fract_y
  _atom_site_fract_z
  _atom_site_occupancy
  C   C1        1.0  0.0  0.0  0.4916552382599589  1.0000
  C   C2        1.0  0.3333329854322145  0.6666669831836742  0.5977655567279408  1.0000
  H   H1        1.0  0.6666669847440474  0.3333329859851446  0.3549859593810841  1.0000
  N   N1        1.0  0.3333329854322145  0.6666669831836742  0.6450140406189159  1.0000
  O   O1        1.0  0.6666669847440474  0.3333329859851446  0.3937962197959542  1.0000
  Sc  Sc1       1.0  0.3333329854322145  0.6666669831836742  0.4416114771715861  1.0000
  Sc  Sc2       1.0  0.6666669847440474  0.3333329859851446  0.540494545118742  1.0000
