data_image0
_chemical_formula_structural       Hf2N3O2
_chemical_formula_sum              "Hf2 N3 O2"
_cell_length_a       3.307783452493703
_cell_length_b       3.307783452470522
_cell_length_c       25.442357587606466
_cell_angle_alpha    90.0
_cell_angle_beta     90.0
_cell_angle_gamma    120.00000000023184

_space_group_name_H-M_alt    "P 1"
_space_group_IT_number       1

loop_
  _space_group_symop_operation_xyz
  'x, y, z'

loop_
  _atom_site_type_symbol
  _atom_site_label
  _atom_site_symmetry_multiplicity
  _atom_site_fract_x
  _atom_site_fract_y
  _atom_site_fract_z
  _atom_site_occupancy
  Hf  Hf1       1.0  0.33333298543221457  0.6666669831836742  0.4461750480953805  1.0000
  Hf  Hf2       1.0  0.6666669847440475  0.3333329859851446  0.5538249514037499  1.0000
  N   N1        1.0  0.0  0.0  0.5000000335576784  1.0000
  N   N2        1.0  0.33333298543221457  0.6666669831836742  0.592949013792468  1.0000
  N   N3        1.0  0.6666669847440475  0.3333329859851446  0.4070509862075321  1.0000
  O   O1        1.0  0.33333298543221457  0.6666669831836742  0.6462591971278598  1.0000
  O   O2        1.0  0.6666669847440475  0.3333329859851446  0.3537408028721402  1.0000
