data_image0
_chemical_formula_structural       BrCNOSc2
_chemical_formula_sum              "Br1 C1 N1 O1 Sc2"
_cell_length_a       3.456552026832306
_cell_length_b       3.4565520268315115
_cell_length_c       24.842061506597812
_cell_angle_alpha    90.0
_cell_angle_beta     90.0
_cell_angle_gamma    120.0000000000076

_space_group_name_H-M_alt    "P 1"
_space_group_IT_number       1

loop_
  _space_group_symop_operation_xyz
  'x, y, z'

loop_
  _atom_site_type_symbol
  _atom_site_label
  _atom_site_symmetry_multiplicity
  _atom_site_fract_x
  _atom_site_fract_y
  _atom_site_fract_z
  _atom_site_occupancy
  Br  Br1       1.0  0.6666669847440474  0.3333329859851446  0.3622887737239394  1.0000
  C   C1        1.0  0.0  0.0  0.48608559590274  1.0000
  N   N1        1.0  0.3333329854322145  0.6666669831836741  0.5857566441921382  1.0000
  O   O1        1.0  0.3333329854322145  0.6666669831836741  0.6377112262760606  1.0000
  Sc  Sc1       1.0  0.3333329854322145  0.6666669831836741  0.4373155581541742  1.0000
  Sc  Sc2       1.0  0.6666669847440474  0.3333329859851446  0.5371394226111821  1.0000
