data_image0
_chemical_formula_structural       Cl2NZr2
_chemical_formula_sum              "Cl2 N1 Zr2"
_cell_length_a       3.4525292017721445
_cell_length_b       3.4525292017660307
_cell_length_c       23.832563089077645
_cell_angle_alpha    90.0
_cell_angle_beta     90.0
_cell_angle_gamma    120.00000000005859

_space_group_name_H-M_alt    "P 1"
_space_group_IT_number       1

loop_
  _space_group_symop_operation_xyz
  'x, y, z'

loop_
  _atom_site_type_symbol
  _atom_site_label
  _atom_site_symmetry_multiplicity
  _atom_site_fract_x
  _atom_site_fract_y
  _atom_site_fract_z
  _atom_site_occupancy
  Cl  Cl1       1.0  0.33333298543221457  0.6666669831836742  0.6223654180055582  1.0000
  Cl  Cl2       1.0  0.6666669847440474  0.3333329859851446  0.3776345819944419  1.0000
  N   N1        1.0  0.0  0.0  0.5000000328834919  1.0000
  Zr  Zr1       1.0  0.33333298543221457  0.6666669831836742  0.4525155527849875  1.0000
  Zr  Zr2       1.0  0.6666669847440474  0.3333329859851446  0.5474844467242053  1.0000
