data_image0
_chemical_formula_structural       C2NOSTi2
_chemical_formula_sum              "C2 N1 O1 S1 Ti2"
_cell_length_a       3.1338750469450507
_cell_length_b       3.133875046937587
_cell_length_c       25.431708310376095
_cell_angle_alpha    90.0
_cell_angle_beta     90.0
_cell_angle_gamma    120.0000000000788

_space_group_name_H-M_alt    "P 1"
_space_group_IT_number       1

loop_
  _space_group_symop_operation_xyz
  'x, y, z'

loop_
  _atom_site_type_symbol
  _atom_site_label
  _atom_site_symmetry_multiplicity
  _atom_site_fract_x
  _atom_site_fract_y
  _atom_site_fract_z
  _atom_site_occupancy
  C   C1        1.0  0.0  0.0  0.4405745623195339  1.0000
  C   C2        1.0  0.3333329854322145  0.6666669831836741  0.5852545444569063  1.0000
  N   N1        1.0  0.3333329854322145  0.6666669831836741  0.5357057253531254  1.0000
  O   O1        1.0  0.6666669847440474  0.3333329859851446  0.35388892834729524  1.0000
  S   S1        1.0  0.3333329854322145  0.6666669831836741  0.6461110716527048  1.0000
  Ti  Ti1       1.0  0.3333329854322145  0.6666669831836741  0.3888074496478766  1.0000
  Ti  Ti2       1.0  0.6666669847440474  0.3333329859851446  0.48613867080081796  1.0000
