data_image0
_chemical_formula_structural       ClFNSc2
_chemical_formula_sum              "Cl1 F1 N1 Sc2"
_cell_length_a       3.3421346989724023
_cell_length_b       3.3421346989691445
_cell_length_c       23.228662855052487
_cell_angle_alpha    90.0
_cell_angle_beta     90.0
_cell_angle_gamma    120.00000000003226

_space_group_name_H-M_alt    "P 1"
_space_group_IT_number       1

loop_
  _space_group_symop_operation_xyz
  'x, y, z'

loop_
  _atom_site_type_symbol
  _atom_site_label
  _atom_site_symmetry_multiplicity
  _atom_site_fract_x
  _atom_site_fract_y
  _atom_site_fract_z
  _atom_site_occupancy
  Cl  Cl1       1.0  0.6666669847440474  0.3333329859851446  0.3874523495459146  1.0000
  F   F1        1.0  0.3333329854322147  0.6666669831836743  0.6125476504540854  1.0000
  N   N1        1.0  0.0  0.0  0.5130594018548226  1.0000
  Sc  Sc1       1.0  0.3333329854322147  0.6666669831836743  0.4602937932269803  1.0000
  Sc  Sc2       1.0  0.6666669847440474  0.3333329859851446  0.5634113837020625  1.0000
