data_image0
_chemical_formula_structural       C2NOPSY2
_chemical_formula_sum              "C2 N1 O1 P1 S1 Y2"
_cell_length_a       3.7286496084665037
_cell_length_b       3.728649608579482
_cell_length_c       28.858804163461283
_cell_angle_alpha    90.0
_cell_angle_beta     90.0
_cell_angle_gamma    119.99999999899768

_space_group_name_H-M_alt    "P 1"
_space_group_IT_number       1

loop_
  _space_group_symop_operation_xyz
  'x, y, z'

loop_
  _atom_site_type_symbol
  _atom_site_label
  _atom_site_symmetry_multiplicity
  _atom_site_fract_x
  _atom_site_fract_y
  _atom_site_fract_z
  _atom_site_occupancy
  C   C1        1.0  0.0  0.0  0.4815593045533892  1.0000
  C   C2        1.0  0.33333298543221446  0.6666669831836743  0.6468864245313641  1.0000
  N   N1        1.0  0.33333298543221446  0.6666669831836743  0.6881367658541071  1.0000
  O   O1        1.0  0.6666669847440474  0.3333329859851445  0.31186323414589306  1.0000
  P   P1        1.0  0.6666669847440474  0.3333329859851445  0.36376205067388334  1.0000
  S   S1        1.0  0.33333298543221446  0.6666669831836743  0.5888574527922996  1.0000
  Y   Y1        1.0  0.33333298543221446  0.6666669831836743  0.4361773466714177  1.0000
  Y   Y2        1.0  0.6666669847440474  0.3333329859851445  0.5284058196091383  1.0000
