data_image0
_chemical_formula_structural       CClOPTi2
_chemical_formula_sum              "C1 Cl1 O1 P1 Ti2"
_cell_length_a       3.1712714303023555
_cell_length_b       3.171271430302296
_cell_length_c       25.310300835489905
_cell_angle_alpha    90.0
_cell_angle_beta     90.0
_cell_angle_gamma    120.00000000000063

_space_group_name_H-M_alt    "P 1"
_space_group_IT_number       1

loop_
  _space_group_symop_operation_xyz
  'x, y, z'

loop_
  _atom_site_type_symbol
  _atom_site_label
  _atom_site_symmetry_multiplicity
  _atom_site_fract_x
  _atom_site_fract_y
  _atom_site_fract_z
  _atom_site_occupancy
  C   C1        1.0  0.0  0.0  0.46665764003370347  1.0000
  Cl  Cl1       1.0  0.6666669847440474  0.3333329859851446  0.35558644911009013  1.0000
  O   O1        1.0  0.3333329854322145  0.6666669831836741  0.64441355088991  1.0000
  P   P1        1.0  0.3333329854322145  0.6666669831836741  0.5855191118309628  1.0000
  Ti  Ti1       1.0  0.3333329854322145  0.6666669831836741  0.4218564452574777  1.0000
  Ti  Ti2       1.0  0.6666669847440474  0.3333329859851446  0.5117166092934271  1.0000
