data_image0
_chemical_formula_structural       N2O2PSc2
_chemical_formula_sum              "N2 O2 P1 Sc2"
_cell_length_a       3.278029347824922
_cell_length_b       3.278029347827071
_cell_length_c       26.429609184905363
_cell_angle_alpha    90.0
_cell_angle_beta     90.0
_cell_angle_gamma    119.99999999997831

_space_group_name_H-M_alt    "P 1"
_space_group_IT_number       1

loop_
  _space_group_symop_operation_xyz
  'x, y, z'

loop_
  _atom_site_type_symbol
  _atom_site_label
  _atom_site_symmetry_multiplicity
  _atom_site_fract_x
  _atom_site_fract_y
  _atom_site_fract_z
  _atom_site_occupancy
  N   N1        1.0  0.0  0.0  0.5148610006110599  1.0000
  N   N2        1.0  0.3333329854322145  0.6666669831836742  0.6098388090044334  1.0000
  O   O1        1.0  0.3333329854322145  0.6666669831836742  0.6594728307545261  1.0000
  O   O2        1.0  0.6666669847440474  0.3333329859851446  0.3405271692454739  1.0000
  P   P1        1.0  0.6666669847440474  0.3333329859851446  0.3970397818394503  1.0000
  Sc  Sc1       1.0  0.3333329854322145  0.6666669831836742  0.47310238571672714  1.0000
  Sc  Sc2       1.0  0.6666669847440474  0.3333329859851446  0.5690690971151705  1.0000
