data_image0
_chemical_formula_structural       CClHf2N2O2
_chemical_formula_sum              "C1 Cl1 Hf2 N2 O2"
_cell_length_a       3.206047025258686
_cell_length_b       3.2060470252819178
_cell_length_c       28.930234122876378
_cell_angle_alpha    90.0
_cell_angle_beta     90.0
_cell_angle_gamma    119.9999999997603

_space_group_name_H-M_alt    "P 1"
_space_group_IT_number       1

loop_
  _space_group_symop_operation_xyz
  'x, y, z'

loop_
  _atom_site_type_symbol
  _atom_site_label
  _atom_site_symmetry_multiplicity
  _atom_site_fract_x
  _atom_site_fract_y
  _atom_site_fract_z
  _atom_site_occupancy
  C   C1        1.0  0.6666669847440473  0.3333329859851446  0.35212400847493064  1.0000
  Cl  Cl1       1.0  0.3333329854322146  0.6666669831836742  0.6889067692375391  1.0000
  Hf  Hf1       1.0  0.3333329854322146  0.6666669831836742  0.4476815197755445  1.0000
  Hf  Hf2       1.0  0.6666669847440473  0.3333329859851446  0.5381378251480254  1.0000
  N   N1        1.0  0.0  0.0  0.4931151982775432  1.0000
  N   N2        1.0  0.6666669847440473  0.3333329859851446  0.31109323076246087  1.0000
  O   O1        1.0  0.3333329854322146  0.6666669831836742  0.570495192737961  1.0000
  O   O2        1.0  0.6666669847440473  0.3333329859851446  0.3986019879642289  1.0000
