data_image0
_chemical_formula_structural       CN2O2PZr2
_chemical_formula_sum              "C1 N2 O2 P1 Zr2"
_cell_length_a       3.335487781735559
_cell_length_b       3.3354877817258934
_cell_length_c       27.804408477404436
_cell_angle_alpha    90.0
_cell_angle_beta     90.0
_cell_angle_gamma    120.00000000009587

_space_group_name_H-M_alt    "P 1"
_space_group_IT_number       1

loop_
  _space_group_symop_operation_xyz
  'x, y, z'

loop_
  _atom_site_type_symbol
  _atom_site_label
  _atom_site_symmetry_multiplicity
  _atom_site_fract_x
  _atom_site_fract_y
  _atom_site_fract_z
  _atom_site_occupancy
  C   C1        1.0  0.6666669847440476  0.3333329859851445  0.3664128167321167  1.0000
  N   N1        1.0  0.0  0.0  0.5055254682344191  1.0000
  N   N2        1.0  0.6666669847440476  0.3333329859851445  0.3236896770277976  1.0000
  O   O1        1.0  0.3333329854322145  0.6666669831836742  0.6763103229722023  1.0000
  O   O2        1.0  0.6666669847440476  0.3333329859851445  0.4145323683782883  1.0000
  P   P1        1.0  0.3333329854322145  0.6666669831836742  0.6225879847475118  1.0000
  Zr  Zr1       1.0  0.3333329854322145  0.6666669831836742  0.46470182344654504  1.0000
  Zr  Zr2       1.0  0.6666669847440476  0.3333329859851445  0.5518407511878084  1.0000
