data_image0
_chemical_formula_structural       C3N2S2Sc2
_chemical_formula_sum              "C3 N2 S2 Sc2"
_cell_length_a       3.435287723576427
_cell_length_b       3.435287723547846
_cell_length_c       28.681051773805432
_cell_angle_alpha    90.0
_cell_angle_beta     90.0
_cell_angle_gamma    120.00000000027522

_space_group_name_H-M_alt    "P 1"
_space_group_IT_number       1

loop_
  _space_group_symop_operation_xyz
  'x, y, z'

loop_
  _atom_site_type_symbol
  _atom_site_label
  _atom_site_symmetry_multiplicity
  _atom_site_fract_x
  _atom_site_fract_y
  _atom_site_fract_z
  _atom_site_occupancy
  C   C1        1.0  0.0  0.0  0.5000000278055227  1.0000
  C   C2        1.0  0.33333298543221446  0.6666669831836742  0.6319356086519485  1.0000
  C   C3        1.0  0.6666669847440472  0.3333329859851446  0.3680643913480515  1.0000
  N   N1        1.0  0.33333298543221446  0.6666669831836742  0.58847162276527  1.0000
  N   N2        1.0  0.6666669847440472  0.3333329859851446  0.4115283776466637  1.0000
  S   S1        1.0  0.33333298543221446  0.6666669831836742  0.6862039763751011  1.0000
  S   S2        1.0  0.6666669847440472  0.3333329859851446  0.3137960236248989  1.0000
  Sc  Sc1       1.0  0.33333298543221446  0.6666669831836742  0.4566965973132396  1.0000
  Sc  Sc2       1.0  0.6666669847440472  0.3333329859851446  0.5433034026867529  1.0000
