data_image0
_chemical_formula_structural       N2O2PY2
_chemical_formula_sum              "N2 O2 P1 Y2"
_cell_length_a       3.5606386527256455
_cell_length_b       3.560638652735336
_cell_length_c       26.797688566086926
_cell_angle_alpha    90.0
_cell_angle_beta     90.0
_cell_angle_gamma    119.99999999990997

_space_group_name_H-M_alt    "P 1"
_space_group_IT_number       1

loop_
  _space_group_symop_operation_xyz
  'x, y, z'

loop_
  _atom_site_type_symbol
  _atom_site_label
  _atom_site_symmetry_multiplicity
  _atom_site_fract_x
  _atom_site_fract_y
  _atom_site_fract_z
  _atom_site_occupancy
  N   N1        1.0  0.0  0.0  0.5153290497902236  1.0000
  N   N2        1.0  0.33333298543221446  0.6666669831836742  0.6148244528268467  1.0000
  O   O1        1.0  0.33333298543221446  0.6666669831836742  0.6641501382552188  1.0000
  O   O2        1.0  0.6666669847440473  0.3333329859851446  0.3358498617447812  1.0000
  P   P1        1.0  0.6666669847440473  0.3333329859851446  0.3916867497644781  1.0000
  Y   Y1        1.0  0.33333298543221446  0.6666669831836742  0.4709593390922916  1.0000
  Y   Y2        1.0  0.6666669847440473  0.3333329859851446  0.5744995243318548  1.0000
