data_image0
_chemical_formula_structural       C2HNSZr2
_chemical_formula_sum              "C2 H1 N1 S1 Zr2"
_cell_length_a       3.3785207030861604
_cell_length_b       3.3785207030896616
_cell_length_c       25.689772963545693
_cell_angle_alpha    90.0
_cell_angle_beta     90.0
_cell_angle_gamma    119.99999999996572

_space_group_name_H-M_alt    "P 1"
_space_group_IT_number       1

loop_
  _space_group_symop_operation_xyz
  'x, y, z'

loop_
  _atom_site_type_symbol
  _atom_site_label
  _atom_site_symmetry_multiplicity
  _atom_site_fract_x
  _atom_site_fract_y
  _atom_site_fract_z
  _atom_site_occupancy
  C   C1        1.0  0.0  0.0  0.43777203098082845  1.0000
  C   C2        1.0  0.3333329854322145  0.6666669831836742  0.5891887663528461  1.0000
  H   H1        1.0  0.6666669847440475  0.3333329859851446  0.3503339641331662  1.0000
  N   N1        1.0  0.3333329854322145  0.6666669831836742  0.540458517883887  1.0000
  S   S1        1.0  0.3333329854322145  0.6666669831836742  0.6496660358668337  1.0000
  Zr  Zr1       1.0  0.3333329854322145  0.6666669831836742  0.38913484912308255  1.0000
  Zr  Zr2       1.0  0.6666669847440475  0.3333329859851446  0.4859918587286566  1.0000
