data_image0
_chemical_formula_structural       CCl2Zr2
_chemical_formula_sum              "C1 Cl2 Zr2"
_cell_length_a       3.4539547900947514
_cell_length_b       3.453954790090682
_cell_length_c       23.995886992090245
_cell_angle_alpha    90.0
_cell_angle_beta     90.0
_cell_angle_gamma    120.00000000003897

_space_group_name_H-M_alt    "P 1"
_space_group_IT_number       1

loop_
  _space_group_symop_operation_xyz
  'x, y, z'

loop_
  _atom_site_type_symbol
  _atom_site_label
  _atom_site_symmetry_multiplicity
  _atom_site_fract_x
  _atom_site_fract_y
  _atom_site_fract_z
  _atom_site_occupancy
  C   C1        1.0  0.0  0.0  0.5000000326327216  1.0000
  Cl  Cl1       1.0  0.33333298543221457  0.6666669831836741  0.6249357232359585  1.0000
  Cl  Cl2       1.0  0.6666669847440474  0.33333298598514444  0.3750642767640415  1.0000
  Zr  Zr1       1.0  0.33333298543221457  0.6666669831836741  0.4499801767985707  1.0000
  Zr  Zr2       1.0  0.6666669847440474  0.33333298598514444  0.5500198227143649  1.0000
