data_image0
_chemical_formula_structural       CClHOSc2
_chemical_formula_sum              "C1 Cl1 H1 O1 Sc2"
_cell_length_a       3.2520737250921057
_cell_length_b       3.252073725089021
_cell_length_c       26.479255439313942
_cell_angle_alpha    90.0
_cell_angle_beta     90.0
_cell_angle_gamma    120.00000000003139

_space_group_name_H-M_alt    "P 1"
_space_group_IT_number       1

loop_
  _space_group_symop_operation_xyz
  'x, y, z'

loop_
  _atom_site_type_symbol
  _atom_site_label
  _atom_site_symmetry_multiplicity
  _atom_site_fract_x
  _atom_site_fract_y
  _atom_site_fract_z
  _atom_site_occupancy
  C   C1        1.0  0.0  0.0  0.4236625713693492  1.0000
  Cl  Cl1       1.0  0.3333329854322145  0.6666669831836741  0.6601112889814252  1.0000
  H   H1        1.0  0.6666669847440475  0.3333329859851446  0.3398887110185748  1.0000
  O   O1        1.0  0.3333329854322145  0.6666669831836741  0.5142322651629239  1.0000
  Sc  Sc1       1.0  0.3333329854322145  0.6666669831836741  0.37746393895152386  1.0000
  Sc  Sc2       1.0  0.6666669847440475  0.3333329859851446  0.48722900543100284  1.0000
