data_image0
_chemical_formula_structural       CHN2O2Sc2
_chemical_formula_sum              "C1 H1 N2 O2 Sc2"
_cell_length_a       3.267667022274862
_cell_length_b       3.2676670222322137
_cell_length_c       26.434986327120217
_cell_angle_alpha    90.0
_cell_angle_beta     90.0
_cell_angle_gamma    120.00000000043175

_space_group_name_H-M_alt    "P 1"
_space_group_IT_number       1

loop_
  _space_group_symop_operation_xyz
  'x, y, z'

loop_
  _atom_site_type_symbol
  _atom_site_label
  _atom_site_symmetry_multiplicity
  _atom_site_fract_x
  _atom_site_fract_y
  _atom_site_fract_z
  _atom_site_occupancy
  C   C1        1.0  0.6666669847440473  0.3333329859851446  0.3853698884905691  1.0000
  H   H1        1.0  0.33333298543221446  0.6666669831836742  0.6595420974072265  1.0000
  N   N1        1.0  0.0  0.0  0.529381847149741  1.0000
  N   N2        1.0  0.6666669847440473  0.3333329859851446  0.34045790259277375  1.0000
  O   O1        1.0  0.33333298543221446  0.6666669831836742  0.6222791235569765  1.0000
  O   O2        1.0  0.6666669847440473  0.3333329859851446  0.43590298827154733  1.0000
  Sc  Sc1       1.0  0.33333298543221446  0.6666669831836742  0.4839137560557702  1.0000
  Sc  Sc2       1.0  0.6666669847440473  0.3333329859851446  0.5758188530621868  1.0000
