data_image0
_chemical_formula_structural       BrCN2SY2
_chemical_formula_sum              "Br1 C1 N2 S1 Y2"
_cell_length_a       3.713405951562012
_cell_length_b       3.713405951594341
_cell_length_c       27.094249087613846
_cell_angle_alpha    90.0
_cell_angle_beta     90.0
_cell_angle_gamma    119.99999999971202

_space_group_name_H-M_alt    "P 1"
_space_group_IT_number       1

loop_
  _space_group_symop_operation_xyz
  'x, y, z'

loop_
  _atom_site_type_symbol
  _atom_site_label
  _atom_site_symmetry_multiplicity
  _atom_site_fract_x
  _atom_site_fract_y
  _atom_site_fract_z
  _atom_site_occupancy
  Br  Br1       1.0  0.6666669847440472  0.3333329859851446  0.3321738118999709  1.0000
  C   C1        1.0  0.3333329854322143  0.6666669831836741  0.6239055158415374  1.0000
  N   N1        1.0  0.0  0.0  0.4496801914784487  1.0000
  N   N2        1.0  0.3333329854322143  0.6666669831836741  0.6678261881000291  1.0000
  S   S1        1.0  0.3333329854322143  0.6666669831836741  0.5619007475145716  1.0000
  Y   Y1        1.0  0.3333329854322143  0.6666669831836741  0.4037636183447019  1.0000
  Y   Y2        1.0  0.6666669847440472  0.3333329859851446  0.4988454124304863  1.0000
