data_image0
_chemical_formula_structural       BrC2Hf2NS
_chemical_formula_sum              "Br1 C2 Hf2 N1 S1"
_cell_length_a       3.416789050606027
_cell_length_b       3.4167890505952787
_cell_length_c       26.48421805612624
_cell_angle_alpha    90.0
_cell_angle_beta     90.0
_cell_angle_gamma    120.00000000010405

_space_group_name_H-M_alt    "P 1"
_space_group_IT_number       1

loop_
  _space_group_symop_operation_xyz
  'x, y, z'

loop_
  _atom_site_type_symbol
  _atom_site_label
  _atom_site_symmetry_multiplicity
  _atom_site_fract_x
  _atom_site_fract_y
  _atom_site_fract_z
  _atom_site_occupancy
  Br  Br1       1.0  0.6666669847440475  0.3333329859851446  0.3398250226201468  1.0000
  C   C1        1.0  0.0  0.0  0.4578735394126118  1.0000
  C   C2        1.0  0.3333329854322145  0.6666669831836741  0.6015320153664137  1.0000
  Hf  Hf1       1.0  0.3333329854322145  0.6666669831836741  0.4138064734429732  1.0000
  Hf  Hf2       1.0  0.6666669847440475  0.3333329859851446  0.503130362536449  1.0000
  N   N1        1.0  0.3333329854322145  0.6666669831836741  0.5540265360211124  1.0000
  S   S1        1.0  0.3333329854322145  0.6666669831836741  0.6601749773798532  1.0000
