data_image0
_chemical_formula_structural       CCl2Hf2O
_chemical_formula_sum              "C1 Cl2 Hf2 O1"
_cell_length_a       3.301659959663899
_cell_length_b       3.3016599596627954
_cell_length_c       26.711775984642987
_cell_angle_alpha    90.0
_cell_angle_beta     90.0
_cell_angle_gamma    120.00000000001106

_space_group_name_H-M_alt    "P 1"
_space_group_IT_number       1

loop_
  _space_group_symop_operation_xyz
  'x, y, z'

loop_
  _atom_site_type_symbol
  _atom_site_label
  _atom_site_symmetry_multiplicity
  _atom_site_fract_x
  _atom_site_fract_y
  _atom_site_fract_z
  _atom_site_occupancy
  C   C1        1.0  0.0  0.0  0.449288846712177  1.0000
  Cl  Cl1       1.0  0.3333329854322145  0.6666669831836742  0.6630699506774002  1.0000
  Cl  Cl2       1.0  0.6666669847440474  0.3333329859851446  0.3369300493225998  1.0000
  Hf  Hf1       1.0  0.3333329854322145  0.6666669831836742  0.4041611397196734  1.0000
  Hf  Hf2       1.0  0.6666669847440474  0.3333329859851446  0.5026122508872157  1.0000
  O   O1        1.0  0.3333329854322145  0.6666669831836742  0.5353413919460621  1.0000
