data_image0
_chemical_formula_structural       BrCClTi2
_chemical_formula_sum              "Br1 C1 Cl1 Ti2"
_cell_length_a       3.287607451200644
_cell_length_b       3.287607451184306
_cell_length_c       23.655072229552527
_cell_angle_alpha    90.0
_cell_angle_beta     90.0
_cell_angle_gamma    120.00000000016439

_space_group_name_H-M_alt    "P 1"
_space_group_IT_number       1

loop_
  _space_group_symop_operation_xyz
  'x, y, z'

loop_
  _atom_site_type_symbol
  _atom_site_label
  _atom_site_symmetry_multiplicity
  _atom_site_fract_x
  _atom_site_fract_y
  _atom_site_fract_z
  _atom_site_occupancy
  Br  Br1       1.0  0.6666669847440474  0.3333329859851446  0.3804680836592926  1.0000
  C   C1        1.0  0.0  0.0  0.5034835773454434  1.0000
  Cl  Cl1       1.0  0.33333298543221446  0.6666669831836742  0.6195319163407074  1.0000
  Ti  Ti1       1.0  0.33333298543221446  0.6666669831836742  0.45819307808367327  1.0000
  Ti  Ti2       1.0  0.6666669847440474  0.3333329859851446  0.5491560342521289  1.0000
