data_image0
_chemical_formula_structural       FNOSc2
_chemical_formula_sum              "F1 N1 O1 Sc2"
_cell_length_a       3.3058396191580184
_cell_length_b       3.3058396191515103
_cell_length_c       22.478553059106666
_cell_angle_alpha    90.0
_cell_angle_beta     90.0
_cell_angle_gamma    120.00000000006513

_space_group_name_H-M_alt    "P 1"
_space_group_IT_number       1

loop_
  _space_group_symop_operation_xyz
  'x, y, z'

loop_
  _atom_site_type_symbol
  _atom_site_label
  _atom_site_symmetry_multiplicity
  _atom_site_fract_x
  _atom_site_fract_y
  _atom_site_fract_z
  _atom_site_occupancy
  F   F1        1.0  0.6666669847440474  0.3333329859851446  0.4003816427300626  1.0000
  N   N1        1.0  0.0  0.0  0.49758712142513606  1.0000
  O   O1        1.0  0.3333329854322145  0.6666669831836742  0.5996183572699374  1.0000
  Sc  Sc1       1.0  0.3333329854322145  0.6666669831836742  0.4519994098782972  1.0000
  Sc  Sc2       1.0  0.6666669847440474  0.3333329859851446  0.5687575362255063  1.0000
