data_image0
_chemical_formula_structural       CN3OY2
_chemical_formula_sum              "C1 N3 O1 Y2"
_cell_length_a       3.638645182929475
_cell_length_b       3.6386451829367514
_cell_length_c       25.774875432158645
_cell_angle_alpha    90.0
_cell_angle_beta     90.0
_cell_angle_gamma    119.99999999993386

_space_group_name_H-M_alt    "P 1"
_space_group_IT_number       1

loop_
  _space_group_symop_operation_xyz
  'x, y, z'

loop_
  _atom_site_type_symbol
  _atom_site_label
  _atom_site_symmetry_multiplicity
  _atom_site_fract_x
  _atom_site_fract_y
  _atom_site_fract_z
  _atom_site_occupancy
  C   C1        1.0  0.3333329854322145  0.6666669831836742  0.6043197718176564  1.0000
  N   N1        1.0  0.0  0.0  0.5017568925996589  1.0000
  N   N2        1.0  0.3333329854322145  0.6666669831836742  0.6508227547524466  1.0000
  N   N3        1.0  0.6666669847440474  0.3333329859851446  0.4012486113510911  1.0000
  O   O1        1.0  0.6666669847440474  0.3333329859851446  0.34917724524755345  1.0000
  Y   Y1        1.0  0.3333329854322145  0.6666669831836742  0.4362792420350732  1.0000
  Y   Y2        1.0  0.6666669847440474  0.3333329859851446  0.5452981016585399  1.0000
