data_image0
_chemical_formula_structural       CHN2STi2
_chemical_formula_sum              "C1 H1 N2 S1 Ti2"
_cell_length_a       3.226470810063973
_cell_length_b       3.2264708100430197
_cell_length_c       25.47582207268132
_cell_angle_alpha    90.0
_cell_angle_beta     90.0
_cell_angle_gamma    120.00000000021484

_space_group_name_H-M_alt    "P 1"
_space_group_IT_number       1

loop_
  _space_group_symop_operation_xyz
  'x, y, z'

loop_
  _atom_site_type_symbol
  _atom_site_label
  _atom_site_symmetry_multiplicity
  _atom_site_fract_x
  _atom_site_fract_y
  _atom_site_fract_z
  _atom_site_occupancy
  C   C1        1.0  0.3333329854322145  0.6666669831836742  0.5999637512674327  1.0000
  H   H1        1.0  0.6666669847440473  0.3333329859851446  0.35327613665707913  1.0000
  N   N1        1.0  0.0  0.0  0.43005622457152803  1.0000
  N   N2        1.0  0.3333329854322145  0.6666669831836742  0.6467238633429208  1.0000
  S   S1        1.0  0.3333329854322145  0.6666669831836742  0.5342378415802689  1.0000
  Ti  Ti1       1.0  0.3333329854322145  0.6666669831836742  0.3907637218655431  1.0000
  Ti  Ti2       1.0  0.6666669847440473  0.3333329859851446  0.4719031018735129  1.0000
