data_image0
_chemical_formula_structural       CHHf2O2
_chemical_formula_sum              "C1 H1 Hf2 O2"
_cell_length_a       3.268221394928617
_cell_length_b       3.2682213949265573
_cell_length_c       23.883049755865994
_cell_angle_alpha    90.0
_cell_angle_beta     90.0
_cell_angle_gamma    120.00000000002086

_space_group_name_H-M_alt    "P 1"
_space_group_IT_number       1

loop_
  _space_group_symop_operation_xyz
  'x, y, z'

loop_
  _atom_site_type_symbol
  _atom_site_label
  _atom_site_symmetry_multiplicity
  _atom_site_fract_x
  _atom_site_fract_y
  _atom_site_fract_z
  _atom_site_occupancy
  C   C1        1.0  0.0  0.0  0.5244057574650519  1.0000
  H   H1        1.0  0.6666669847440474  0.3333329859851446  0.3768362956991906  1.0000
  Hf  Hf1       1.0  0.3333329854322145  0.6666669831836742  0.473337939336108  1.0000
  Hf  Hf2       1.0  0.6666669847440474  0.3333329859851446  0.5830246883463159  1.0000
  O   O1        1.0  0.3333329854322145  0.6666669831836742  0.6231637043008094  1.0000
  O   O2        1.0  0.6666669847440474  0.3333329859851446  0.4183148978055981  1.0000
