data_image0
_chemical_formula_structural       CFOTi2
_chemical_formula_sum              "C1 F1 O1 Ti2"
_cell_length_a       3.1647653680862518
_cell_length_b       3.1647653680840486
_cell_length_c       22.4861110491973
_cell_angle_alpha    90.0
_cell_angle_beta     90.0
_cell_angle_gamma    120.00000000002305

_space_group_name_H-M_alt    "P 1"
_space_group_IT_number       1

loop_
  _space_group_symop_operation_xyz
  'x, y, z'

loop_
  _atom_site_type_symbol
  _atom_site_label
  _atom_site_symmetry_multiplicity
  _atom_site_fract_x
  _atom_site_fract_y
  _atom_site_fract_z
  _atom_site_occupancy
  C   C1        1.0  0.0  0.0  0.5017515503853945  1.0000
  F   F1        1.0  0.6666669847440473  0.3333329859851446  0.4002470671922292  1.0000
  O   O1        1.0  0.3333329854322145  0.6666669831836742  0.5997529328077709  1.0000
  Ti  Ti1       1.0  0.3333329854322145  0.6666669831836742  0.4533359435444814  1.0000
  Ti  Ti2       1.0  0.6666669847440473  0.3333329859851446  0.5611395208119929  1.0000
