data_image0
_chemical_formula_structural       ClHNY2
_chemical_formula_sum              "Cl1 H1 N1 Y2"
_cell_length_a       3.557697127330602
_cell_length_b       3.557697127334392
_cell_length_c       23.465581422524107
_cell_angle_alpha    90.0
_cell_angle_beta     90.0
_cell_angle_gamma    119.99999999996477

_space_group_name_H-M_alt    "P 1"
_space_group_IT_number       1

loop_
  _space_group_symop_operation_xyz
  'x, y, z'

loop_
  _atom_site_type_symbol
  _atom_site_label
  _atom_site_symmetry_multiplicity
  _atom_site_fract_x
  _atom_site_fract_y
  _atom_site_fract_z
  _atom_site_occupancy
  Cl  Cl1       1.0  0.33333298543221446  0.666666983183674  0.6164595354385256  1.0000
  H   H1        1.0  0.6666669847440474  0.3333329859851445  0.3835404645614745  1.0000
  N   N1        1.0  0.0  0.0  0.4845406038616937  1.0000
  Y   Y1        1.0  0.33333298543221446  0.666666983183674  0.4264731239374333  1.0000
  Y   Y2        1.0  0.6666669847440474  0.3333329859851445  0.5393319718970211  1.0000
