data_image0
_chemical_formula_structural       C2N2O2Y2
_chemical_formula_sum              "C2 N2 O2 Y2"
_cell_length_a       3.6584538559245217
_cell_length_b       3.6584538559365867
_cell_length_c       27.180454722060535
_cell_angle_alpha    90.0
_cell_angle_beta     90.0
_cell_angle_gamma    119.99999999989092

_space_group_name_H-M_alt    "P 1"
_space_group_IT_number       1

loop_
  _space_group_symop_operation_xyz
  'x, y, z'

loop_
  _atom_site_type_symbol
  _atom_site_label
  _atom_site_symmetry_multiplicity
  _atom_site_fract_x
  _atom_site_fract_y
  _atom_site_fract_z
  _atom_site_occupancy
  C   C1        1.0  0.0  0.0  0.5227296276190879  1.0000
  C   C2        1.0  0.6666669847440474  0.3333329859851446  0.3755035887750383  1.0000
  N   N1        1.0  0.33333298543221457  0.6666669831836742  0.621260273233773  1.0000
  N   N2        1.0  0.6666669847440474  0.3333329859851446  0.42136518398910544  1.0000
  O   O1        1.0  0.33333298543221457  0.6666669831836742  0.6688797118358984  1.0000
  O   O2        1.0  0.6666669847440474  0.3333329859851446  0.3311202881641016  1.0000
  Y   Y1        1.0  0.33333298543221457  0.6666669831836742  0.47303634360543545  1.0000
  Y   Y2        1.0  0.6666669847440474  0.3333329859851446  0.5742055528771903  1.0000
