data_image0
_chemical_formula_structural       C2NO2Sc2
_chemical_formula_sum              "C2 N1 O2 Sc2"
_cell_length_a       3.303784702598639
_cell_length_b       3.3037847025896814
_cell_length_c       25.40567904423566
_cell_angle_alpha    90.0
_cell_angle_beta     90.0
_cell_angle_gamma    120.00000000008971

_space_group_name_H-M_alt    "P 1"
_space_group_IT_number       1

loop_
  _space_group_symop_operation_xyz
  'x, y, z'

loop_
  _atom_site_type_symbol
  _atom_site_label
  _atom_site_symmetry_multiplicity
  _atom_site_fract_x
  _atom_site_fract_y
  _atom_site_fract_z
  _atom_site_occupancy
  C   C1        1.0  0.0  0.0  0.5513213307354783  1.0000
  C   C2        1.0  0.6666669847440474  0.3333329859851446  0.4011025155380082  1.0000
  N   N1        1.0  0.6666669847440474  0.3333329859851446  0.3542515035449141  1.0000
  O   O1        1.0  0.3333329854322146  0.6666669831836742  0.6457484964550859  1.0000
  O   O2        1.0  0.6666669847440474  0.3333329859851446  0.4534575316283574  1.0000
  Sc  Sc1       1.0  0.3333329854322146  0.6666669831836742  0.5042632103780236  1.0000
  Sc  Sc2       1.0  0.6666669847440474  0.3333329859851446  0.6181675426622992  1.0000
