data_image0
_chemical_formula_structural       C2ClNOTi2
_chemical_formula_sum              "C2 Cl1 N1 O1 Ti2"
_cell_length_a       3.2065131982641404
_cell_length_b       3.206513198261622
_cell_length_c       25.690994520118984
_cell_angle_alpha    90.0
_cell_angle_beta     90.0
_cell_angle_gamma    120.00000000002599

_space_group_name_H-M_alt    "P 1"
_space_group_IT_number       1

loop_
  _space_group_symop_operation_xyz
  'x, y, z'

loop_
  _atom_site_type_symbol
  _atom_site_label
  _atom_site_symmetry_multiplicity
  _atom_site_fract_x
  _atom_site_fract_y
  _atom_site_fract_z
  _atom_site_occupancy
  C   C1        1.0  0.0  0.0  0.5410989337049729  1.0000
  C   C2        1.0  0.6666669847440474  0.3333329859851446  0.3965670507724555  1.0000
  Cl  Cl1       1.0  0.33333298543221446  0.6666669831836742  0.6496826935620584  1.0000
  N   N1        1.0  0.6666669847440474  0.3333329859851446  0.3503173064379416  1.0000
  O   O1        1.0  0.6666669847440474  0.3333329859851446  0.4485195451827226  1.0000
  Ti  Ti1       1.0  0.33333298543221446  0.6666669831836742  0.4986230266816374  1.0000
  Ti  Ti2       1.0  0.6666669847440474  0.3333329859851446  0.5841253098509952  1.0000
