data_image0
_chemical_formula_structural       C2FNY2
_chemical_formula_sum              "C2 F1 N1 Y2"
_cell_length_a       3.6477406948700657
_cell_length_b       3.647740694880173
_cell_length_c       24.571830183034766
_cell_angle_alpha    90.0
_cell_angle_beta     90.0
_cell_angle_gamma    119.99999999990834

_space_group_name_H-M_alt    "P 1"
_space_group_IT_number       1

loop_
  _space_group_symop_operation_xyz
  'x, y, z'

loop_
  _atom_site_type_symbol
  _atom_site_label
  _atom_site_symmetry_multiplicity
  _atom_site_fract_x
  _atom_site_fract_y
  _atom_site_fract_z
  _atom_site_occupancy
  C   C1        1.0  0.0  0.0  0.46845067981084565  1.0000
  C   C2        1.0  0.33333298543221457  0.6666669831836742  0.5849317132715011  1.0000
  F   F1        1.0  0.6666669847440476  0.3333329859851446  0.3662730831590196  1.0000
  N   N1        1.0  0.33333298543221457  0.6666669831836742  0.6337269168409805  1.0000
  Y   Y1        1.0  0.33333298543221457  0.6666669831836742  0.4124982613021253  1.0000
  Y   Y2        1.0  0.6666669847440476  0.3333329859851446  0.5237297191873471  1.0000
