data_image0
_chemical_formula_structural       CN3O2Y2
_chemical_formula_sum              "C1 N3 O2 Y2"
_cell_length_a       3.60358339845395
_cell_length_b       3.603583398452817
_cell_length_c       27.000249459148563
_cell_angle_alpha    90.0
_cell_angle_beta     90.0
_cell_angle_gamma    120.0000000000104

_space_group_name_H-M_alt    "P 1"
_space_group_IT_number       1

loop_
  _space_group_symop_operation_xyz
  'x, y, z'

loop_
  _atom_site_type_symbol
  _atom_site_label
  _atom_site_symmetry_multiplicity
  _atom_site_fract_x
  _atom_site_fract_y
  _atom_site_fract_z
  _atom_site_occupancy
  C   C1        1.0  0.6666669847440474  0.3333329859851447  0.3779688095087073  1.0000
  N   N1        1.0  0.0  0.0  0.5193693216794109  1.0000
  N   N2        1.0  0.33333298543221457  0.6666669831836742  0.6171101137543725  1.0000
  N   N3        1.0  0.6666669847440474  0.3333329859851447  0.4241187617229191  1.0000
  O   O1        1.0  0.33333298543221457  0.6666669831836742  0.6666697463807874  1.0000
  O   O2        1.0  0.6666669847440474  0.3333329859851447  0.3333302536192126  1.0000
  Y   Y1        1.0  0.33333298543221457  0.6666669831836742  0.4774603999861431  1.0000
  Y   Y2        1.0  0.6666669847440474  0.3333329859851447  0.581979207216646  1.0000
