data_image0
_chemical_formula_structural       Cl2NOZr2
_chemical_formula_sum              "Cl2 N1 O1 Zr2"
_cell_length_a       3.2885523691830842
_cell_length_b       3.288552369182601
_cell_length_c       26.866340175435347
_cell_angle_alpha    90.0
_cell_angle_beta     90.0
_cell_angle_gamma    120.00000000000487

_space_group_name_H-M_alt    "P 1"
_space_group_IT_number       1

loop_
  _space_group_symop_operation_xyz
  'x, y, z'

loop_
  _atom_site_type_symbol
  _atom_site_label
  _atom_site_symmetry_multiplicity
  _atom_site_fract_x
  _atom_site_fract_y
  _atom_site_fract_z
  _atom_site_occupancy
  Cl  Cl1       1.0  0.3333329854322145  0.6666669831836742  0.6650083360357004  1.0000
  Cl  Cl2       1.0  0.6666669847440475  0.3333329859851446  0.33499166396429964  1.0000
  N   N1        1.0  0.0  0.0  0.4534232140860985  1.0000
  O   O1        1.0  0.3333329854322145  0.6666669831836742  0.5368043107981895  1.0000
  Zr  Zr1       1.0  0.3333329854322145  0.6666669831836742  0.40325348095986596  1.0000
  Zr  Zr2       1.0  0.6666669847440475  0.3333329859851446  0.5024423563085123  1.0000
