data_image0
_chemical_formula_structural       C2NOPTi2
_chemical_formula_sum              "C2 N1 O1 P1 Ti2"
_cell_length_a       3.1452583787968798
_cell_length_b       3.145258378797143
_cell_length_c       26.252654364220856
_cell_angle_alpha    90.0
_cell_angle_beta     90.0
_cell_angle_gamma    119.99999999999724

_space_group_name_H-M_alt    "P 1"
_space_group_IT_number       1

loop_
  _space_group_symop_operation_xyz
  'x, y, z'

loop_
  _atom_site_type_symbol
  _atom_site_label
  _atom_site_symmetry_multiplicity
  _atom_site_fract_x
  _atom_site_fract_y
  _atom_site_fract_z
  _atom_site_occupancy
  C   C1        1.0  0.0  0.0  0.514174709964327  1.0000
  C   C2        1.0  0.3333329854322145  0.6666669831836742  0.6113013956063635  1.0000
  N   N1        1.0  0.3333329854322145  0.6666669831836742  0.6571775228844711  1.0000
  O   O1        1.0  0.6666669847440474  0.3333329859851446  0.3428224771155292  1.0000
  P   P1        1.0  0.6666669847440474  0.3333329859851446  0.3996015365583525  1.0000
  Ti  Ti1       1.0  0.3333329854322145  0.6666669831836742  0.4707552204217146  1.0000
  Ti  Ti2       1.0  0.6666669847440474  0.3333329859851446  0.5583509251534655  1.0000
