data_image0
_chemical_formula_structural       CClHOY2
_chemical_formula_sum              "C1 Cl1 H1 O1 Y2"
_cell_length_a       3.6600709535724603
_cell_length_b       3.6600709535949245
_cell_length_c       24.771583336151668
_cell_angle_alpha    90.0
_cell_angle_beta     90.0
_cell_angle_gamma    119.99999999979697

_space_group_name_H-M_alt    "P 1"
_space_group_IT_number       1

loop_
  _space_group_symop_operation_xyz
  'x, y, z'

loop_
  _atom_site_type_symbol
  _atom_site_label
  _atom_site_symmetry_multiplicity
  _atom_site_fract_x
  _atom_site_fract_y
  _atom_site_fract_z
  _atom_site_occupancy
  C   C1        1.0  0.0  0.0  0.5101399768194639  1.0000
  Cl  Cl1       1.0  0.33333298543221446  0.666666983183674  0.636680470607408  1.0000
  H   H1        1.0  0.6666669847440475  0.3333329859851446  0.36331952939259204  1.0000
  O   O1        1.0  0.6666669847440475  0.3333329859851446  0.40312789897018597  1.0000
  Y   Y1        1.0  0.33333298543221446  0.666666983183674  0.45448180652541775  1.0000
  Y   Y2        1.0  0.6666669847440475  0.3333329859851446  0.5645695086032678  1.0000
