data_image0
_chemical_formula_structural       Hf2NO2
_chemical_formula_sum              "Hf2 N1 O2"
_cell_length_a       3.2295034248649865
_cell_length_b       3.22950342483176
_cell_length_c       22.615822600212116
_cell_angle_alpha    90.0
_cell_angle_beta     90.0
_cell_angle_gamma    120.00000000034034

_space_group_name_H-M_alt    "P 1"
_space_group_IT_number       1

loop_
  _space_group_symop_operation_xyz
  'x, y, z'

loop_
  _atom_site_type_symbol
  _atom_site_label
  _atom_site_symmetry_multiplicity
  _atom_site_fract_x
  _atom_site_fract_y
  _atom_site_fract_z
  _atom_site_occupancy
  Hf  Hf1       1.0  0.3333329854322145  0.6666669831836742  0.44103811828271694  1.0000
  Hf  Hf2       1.0  0.6666669847440474  0.3333329859851446  0.5589618811261673  1.0000
  N   N1        1.0  0.0  0.0  0.500000039604042  1.0000
  O   O1        1.0  0.3333329854322145  0.6666669831836742  0.6020485233238614  1.0000
  O   O2        1.0  0.6666669847440474  0.3333329859851446  0.39795147667613856  1.0000
