data_image0
_chemical_formula_structural       HNOPSc2
_chemical_formula_sum              "H1 N1 O1 P1 Sc2"
_cell_length_a       3.231833154029566
_cell_length_b       3.231833154015226
_cell_length_c       24.918202222540046
_cell_angle_alpha    90.0
_cell_angle_beta     90.0
_cell_angle_gamma    120.00000000014678

_space_group_name_H-M_alt    "P 1"
_space_group_IT_number       1

loop_
  _space_group_symop_operation_xyz
  'x, y, z'

loop_
  _atom_site_type_symbol
  _atom_site_label
  _atom_site_symmetry_multiplicity
  _atom_site_fract_x
  _atom_site_fract_y
  _atom_site_fract_z
  _atom_site_occupancy
  H   H1        1.0  0.6666669847440474  0.3333329859851446  0.3611817545913866  1.0000
  N   N1        1.0  0.0  0.0  0.45019567598587634  1.0000
  O   O1        1.0  0.3333329854322145  0.6666669831836742  0.6388182454086135  1.0000
  P   P1        1.0  0.3333329854322145  0.6666669831836742  0.5788901316373585  1.0000
  Sc  Sc1       1.0  0.3333329854322145  0.6666669831836742  0.4013936953977922  1.0000
  Sc  Sc2       1.0  0.6666669847440474  0.3333329859851446  0.49869204778733744  1.0000
