data_image0
_chemical_formula_structural       CFOPY2
_chemical_formula_sum              "C1 F1 O1 P1 Y2"
_cell_length_a       3.6038450114973433
_cell_length_b       3.6038450115224014
_cell_length_c       25.506787391089716
_cell_angle_alpha    90.0
_cell_angle_beta     90.0
_cell_angle_gamma    119.99999999977

_space_group_name_H-M_alt    "P 1"
_space_group_IT_number       1

loop_
  _space_group_symop_operation_xyz
  'x, y, z'

loop_
  _atom_site_type_symbol
  _atom_site_label
  _atom_site_symmetry_multiplicity
  _atom_site_fract_x
  _atom_site_fract_y
  _atom_site_fract_z
  _atom_site_occupancy
  C   C1        1.0  0.0  0.0  0.45218013496669063  1.0000
  F   F1        1.0  0.6666669847440473  0.3333329859851445  0.35284725833971425  1.0000
  O   O1        1.0  0.33333298543221446  0.666666983183674  0.6471527416602858  1.0000
  P   P1        1.0  0.33333298543221446  0.666666983183674  0.5884436514575282  1.0000
  Y   Y1        1.0  0.33333298543221446  0.666666983183674  0.3979712096181865  1.0000
  Y   Y2        1.0  0.6666669847440473  0.3333329859851445  0.5047048738058598  1.0000
