data_image0
_chemical_formula_structural       C3N2Y2
_chemical_formula_sum              "C3 N2 Y2"
_cell_length_a       3.7061282457806293
_cell_length_b       3.706128245803684
_cell_length_c       26.033859908326722
_cell_angle_alpha    90.0
_cell_angle_beta     90.0
_cell_angle_gamma    119.99999999979423

_space_group_name_H-M_alt    "P 1"
_space_group_IT_number       1

loop_
  _space_group_symop_operation_xyz
  'x, y, z'

loop_
  _atom_site_type_symbol
  _atom_site_label
  _atom_site_symmetry_multiplicity
  _atom_site_fract_x
  _atom_site_fract_y
  _atom_site_fract_z
  _atom_site_occupancy
  C   C1        1.0  0.0  0.0  0.5000000263192145  1.0000
  C   C2        1.0  0.3333329854322145  0.6666669831836742  0.608208124127798  1.0000
  C   C3        1.0  0.6666669847440474  0.3333329859851446  0.39179187626211653  1.0000
  N   N1        1.0  0.3333329854322145  0.6666669831836742  0.6542963651301886  1.0000
  N   N2        1.0  0.6666669847440474  0.3333329859851446  0.3457036348698114  1.0000
  Y   Y1        1.0  0.3333329854322145  0.6666669831836742  0.44785211455184065  1.0000
  Y   Y2        1.0  0.6666669847440474  0.3333329859851446  0.5521478854481527  1.0000
