data_image0
_chemical_formula_structural       C3N2OY2
_chemical_formula_sum              "C3 N2 O1 Y2"
_cell_length_a       3.6826531107384755
_cell_length_b       3.6826531107465517
_cell_length_c       27.166671377356085
_cell_angle_alpha    90.0
_cell_angle_beta     90.0
_cell_angle_gamma    119.99999999992745

_space_group_name_H-M_alt    "P 1"
_space_group_IT_number       1

loop_
  _space_group_symop_operation_xyz
  'x, y, z'

loop_
  _atom_site_type_symbol
  _atom_site_label
  _atom_site_symmetry_multiplicity
  _atom_site_fract_x
  _atom_site_fract_y
  _atom_site_fract_z
  _atom_site_occupancy
  C   C1        1.0  0.0  0.0  0.5201990368236609  1.0000
  C   C2        1.0  0.3333329854322145  0.6666669831836742  0.6245478937621013  1.0000
  C   C3        1.0  0.6666669847440476  0.3333329859851446  0.3750807997021275  1.0000
  N   N1        1.0  0.3333329854322145  0.6666669831836742  0.6687117138869776  1.0000
  N   N2        1.0  0.6666669847440476  0.3333329859851446  0.3312882861130224  1.0000
  O   O1        1.0  0.6666669847440476  0.3333329859851446  0.4242000306785104  1.0000
  Y   Y1        1.0  0.3333329854322145  0.6666669831836742  0.4701813881403419  1.0000
  Y   Y2        1.0  0.6666669847440476  0.3333329859851446  0.5703978112160566  1.0000
