data_image0
_chemical_formula_structural       C2ClNTi2
_chemical_formula_sum              "C2 Cl1 N1 Ti2"
_cell_length_a       3.2024150079419145
_cell_length_b       3.2024150079391323
_cell_length_c       24.50969566382822
_cell_angle_alpha    90.0
_cell_angle_beta     90.0
_cell_angle_gamma    120.00000000002875

_space_group_name_H-M_alt    "P 1"
_space_group_IT_number       1

loop_
  _space_group_symop_operation_xyz
  'x, y, z'

loop_
  _atom_site_type_symbol
  _atom_site_label
  _atom_site_symmetry_multiplicity
  _atom_site_fract_x
  _atom_site_fract_y
  _atom_site_fract_z
  _atom_site_occupancy
  C   C1        1.0  0.0  0.0  0.4807217443731843  1.0000
  C   C2        1.0  0.3333329854322145  0.6666669831836742  0.5836976047852881  1.0000
  Cl  Cl1       1.0  0.6666669847440476  0.3333329859851446  0.3672016218986486  1.0000
  N   N1        1.0  0.3333329854322145  0.6666669831836742  0.6327983781013513  1.0000
  Ti  Ti1       1.0  0.3333329854322145  0.6666669831836742  0.4358473746832082  1.0000
  Ti  Ti2       1.0  0.6666669847440476  0.3333329859851446  0.5268703709036521  1.0000
