data_image0
_chemical_formula_structural       CBrFLa2
_chemical_formula_sum              "C1 Br1 F1 La2"
_cell_length_a       3.949715918368061
_cell_length_b       3.949715918366288
_cell_length_c       22.343793436645328
_cell_angle_alpha    89.99999999999999
_cell_angle_beta     89.99999999999999
_cell_angle_gamma    120.00000000001485

_space_group_name_H-M_alt    "P 1"
_space_group_IT_number       1

loop_
  _space_group_symop_operation_xyz
  'x, y, z'

loop_
  _atom_site_type_symbol
  _atom_site_label
  _atom_site_symmetry_multiplicity
  _atom_site_fract_x
  _atom_site_fract_y
  _atom_site_fract_z
  _atom_site_occupancy
  C   C1        1.0  0.0  0.0  0.514992581937122  1.0000
  Br  Br1       1.0  0.6666669847440473  0.33333298598514455  0.35769437360256773  1.0000
  F   F1        1.0  0.3333329854322144  0.6666669831836741  0.6304887843179878  1.0000
  La  La1       1.0  0.3333329854322144  0.6666669831836741  0.44971298084548833  1.0000
  La  La2       1.0  0.6666669847440473  0.33333298598514455  0.5821671651950868  1.0000
