data_image0
_chemical_formula_structural       CO2Y2
_chemical_formula_sum              "C1 O2 Y2"
_cell_length_a       3.716835378580149
_cell_length_b       3.716835378584464
_cell_length_c       25.231436435550915
_cell_angle_alpha    90.0
_cell_angle_beta     90.0
_cell_angle_gamma    119.9999999999616

_space_group_name_H-M_alt    "P 1"
_space_group_IT_number       1

loop_
  _space_group_symop_operation_xyz
  'x, y, z'

loop_
  _atom_site_type_symbol
  _atom_site_label
  _atom_site_symmetry_multiplicity
  _atom_site_fract_x
  _atom_site_fract_y
  _atom_site_fract_z
  _atom_site_occupancy
  C   C1        1.0  0.0  2.055466413384959e-32  0.4898159641712759  1.0000
  O   O1        1.0  0.33333298543221446  0.6666669831836741  0.5818341855329773  1.0000
  O   O2        1.0  0.0  0.0  0.422536858633985  1.0000
  Y   Y1        1.0  0.33333298543221446  0.6666669831836741  0.4486057410911062  1.0000
  Y   Y2        1.0  0.6666669847440474  0.3333329859851446  0.5572072769706435  1.0000
