data_image0
_chemical_formula_structural       C2Hf2N2O2
_chemical_formula_sum              "C2 Hf2 N2 O2"
_cell_length_a       3.357563980849121
_cell_length_b       3.357563980841028
_cell_length_c       26.75008929670622
_cell_angle_alpha    90.0
_cell_angle_beta     90.0
_cell_angle_gamma    120.00000000007974

_space_group_name_H-M_alt    "P 1"
_space_group_IT_number       1

loop_
  _space_group_symop_operation_xyz
  'x, y, z'

loop_
  _atom_site_type_symbol
  _atom_site_label
  _atom_site_symmetry_multiplicity
  _atom_site_fract_x
  _atom_site_fract_y
  _atom_site_fract_z
  _atom_site_occupancy
  C   C1        1.0  0.0  0.0  0.5234536738805122  1.0000
  C   C2        1.0  0.6666669847440474  0.33333298598514477  0.381470973845733  1.0000
  Hf  Hf1       1.0  0.3333329854322146  0.6666669831836743  0.48169569783843963  1.0000
  Hf  Hf2       1.0  0.6666669847440474  0.33333298598514477  0.5773026996221473  1.0000
  N   N1        1.0  0.3333329854322146  0.6666669831836743  0.6133938856144843  1.0000
  N   N2        1.0  0.6666669847440474  0.33333298598514477  0.4282086410358132  1.0000
  O   O1        1.0  0.3333329854322146  0.6666669831836743  0.6635525249963115  1.0000
  O   O2        1.0  0.6666669847440474  0.33333298598514477  0.3364474750036885  1.0000
