data_image0
_chemical_formula_structural       CClHOZr2
_chemical_formula_sum              "C1 Cl1 H1 O1 Zr2"
_cell_length_a       3.394844011610658
_cell_length_b       3.3948440116052105
_cell_length_c       24.593663684433267
_cell_angle_alpha    90.0
_cell_angle_beta     90.0
_cell_angle_gamma    120.00000000005309

_space_group_name_H-M_alt    "P 1"
_space_group_IT_number       1

loop_
  _space_group_symop_operation_xyz
  'x, y, z'

loop_
  _atom_site_type_symbol
  _atom_site_label
  _atom_site_symmetry_multiplicity
  _atom_site_fract_x
  _atom_site_fract_y
  _atom_site_fract_z
  _atom_site_occupancy
  C   C1        1.0  0.0  0.0  0.5100680425843717  1.0000
  Cl  Cl1       1.0  0.33333298543221446  0.6666669831836741  0.6340520828665062  1.0000
  H   H1        1.0  0.6666669847440472  0.33333298598514444  0.3659479171334937  1.0000
  O   O1        1.0  0.6666669847440472  0.33333298598514444  0.40608084576382086  1.0000
  Zr  Zr1       1.0  0.33333298543221446  0.6666669831836741  0.4607285751841234  1.0000
  Zr  Zr2       1.0  0.6666669847440472  0.33333298598514444  0.560061729998899  1.0000
