data_image0
_chemical_formula_structural       C3Hf2N2S
_chemical_formula_sum              "C3 Hf2 N2 S1"
_cell_length_a       3.3578701006133884
_cell_length_b       3.357870100607166
_cell_length_c       27.260404378759493
_cell_angle_alpha    90.0
_cell_angle_beta     90.0
_cell_angle_gamma    120.0000000000613

_space_group_name_H-M_alt    "P 1"
_space_group_IT_number       1

loop_
  _space_group_symop_operation_xyz
  'x, y, z'

loop_
  _atom_site_type_symbol
  _atom_site_label
  _atom_site_symmetry_multiplicity
  _atom_site_fract_x
  _atom_site_fract_y
  _atom_site_fract_z
  _atom_site_occupancy
  C   C1        1.0  0.0  0.0  0.5272502099365801  1.0000
  C   C2        1.0  0.33333298543221457  0.6666669831836742  0.6255963635888772  1.0000
  C   C3        1.0  0.6666669847440476  0.3333329859851446  0.3870426924122902  1.0000
  Hf  Hf1       1.0  0.33333298543221457  0.6666669831836742  0.48285999612591435  1.0000
  Hf  Hf2       1.0  0.6666669847440476  0.3333329859851446  0.5721342845854611  1.0000
  N   N1        1.0  0.33333298543221457  0.6666669831836742  0.6698508255801029  1.0000
  N   N2        1.0  0.6666669847440476  0.3333329859851446  0.43321678519472895  1.0000
  S   S1        1.0  0.6666669847440476  0.3333329859851446  0.3301491744198973  1.0000
