data_image0
_chemical_formula_structural       ClFNOSc2
_chemical_formula_sum              "Cl1 F1 N1 O1 Sc2"
_cell_length_a       3.2980640252921165
_cell_length_b       3.2980640252919957
_cell_length_c       26.8522330118847
_cell_angle_alpha    90.0
_cell_angle_beta     90.0
_cell_angle_gamma    120.00000000000121

_space_group_name_H-M_alt    "P 1"
_space_group_IT_number       1

loop_
  _space_group_symop_operation_xyz
  'x, y, z'

loop_
  _atom_site_type_symbol
  _atom_site_label
  _atom_site_symmetry_multiplicity
  _atom_site_fract_x
  _atom_site_fract_y
  _atom_site_fract_z
  _atom_site_occupancy
  Cl  Cl1       1.0  0.3333329854322145  0.6666669831836742  0.6648323438867587  1.0000
  F   F1        1.0  0.6666669847440476  0.3333329859851446  0.3351676561132414  1.0000
  N   N1        1.0  0.0  0.0  0.4168914988014922  1.0000
  O   O1        1.0  0.3333329854322145  0.6666669831836742  0.5022614633346978  1.0000
  Sc  Sc1       1.0  0.3333329854322145  0.6666669831836742  0.37863073546391895  1.0000
  Sc  Sc2       1.0  0.6666669847440476  0.3333329859851446  0.47678313372237086  1.0000
