data_image0
_chemical_formula_structural       C2ClNOZr2
_chemical_formula_sum              "C2 Cl1 N1 O1 Zr2"
_cell_length_a       3.4158769812897884
_cell_length_b       3.4158769812687177
_cell_length_c       26.13578795719115
_cell_angle_alpha    90.0
_cell_angle_beta     90.0
_cell_angle_gamma    120.00000000020405

_space_group_name_H-M_alt    "P 1"
_space_group_IT_number       1

loop_
  _space_group_symop_operation_xyz
  'x, y, z'

loop_
  _atom_site_type_symbol
  _atom_site_label
  _atom_site_symmetry_multiplicity
  _atom_site_fract_x
  _atom_site_fract_y
  _atom_site_fract_z
  _atom_site_occupancy
  C   C1        1.0  0.0  0.0  0.4600970919015266  1.0000
  C   C2        1.0  0.33333298543221446  0.6666669831836742  0.6095279802677736  1.0000
  Cl  Cl1       1.0  0.6666669847440474  0.3333329859851446  0.3443554108543219  1.0000
  N   N1        1.0  0.33333298543221446  0.6666669831836742  0.5618079555177935  1.0000
  O   O1        1.0  0.33333298543221446  0.6666669831836742  0.6556445891456781  1.0000
  Zr  Zr1       1.0  0.33333298543221446  0.6666669831836742  0.4134898369731823  1.0000
  Zr  Zr2       1.0  0.6666669847440474  0.3333329859851446  0.5065739111337016  1.0000
