data_image0
_chemical_formula_structural       C3N2OZr2
_chemical_formula_sum              "C3 N2 O1 Zr2"
_cell_length_a       3.389049489069241
_cell_length_b       3.3890494890388037
_cell_length_c       27.068315897822178
_cell_angle_alpha    90.0
_cell_angle_beta     90.0
_cell_angle_gamma    120.0000000002971

_space_group_name_H-M_alt    "P 1"
_space_group_IT_number       1

loop_
  _space_group_symop_operation_xyz
  'x, y, z'

loop_
  _atom_site_type_symbol
  _atom_site_label
  _atom_site_symmetry_multiplicity
  _atom_site_fract_x
  _atom_site_fract_y
  _atom_site_fract_z
  _atom_site_occupancy
  C   C1        1.0  0.0  0.0  0.5214942281102222  1.0000
  C   C2        1.0  0.3333329854322145  0.6666669831836742  0.6230140084079132  1.0000
  C   C3        1.0  0.6666669847440475  0.3333329859851446  0.37698872252591636  1.0000
  N   N1        1.0  0.3333329854322145  0.6666669831836742  0.6675079441967016  1.0000
  N   N2        1.0  0.6666669847440475  0.3333329859851446  0.4230861146427038  1.0000
  O   O1        1.0  0.6666669847440475  0.3333329859851446  0.3324920558032984  1.0000
  Zr  Zr1       1.0  0.3333329854322145  0.6666669831836742  0.4763976646903422  1.0000
  Zr  Zr2       1.0  0.6666669847440475  0.3333329859851446  0.5679603175729435  1.0000
