data_image0
_chemical_formula_structural       C2HHf2NS
_chemical_formula_sum              "C2 H1 Hf2 N1 S1"
_cell_length_a       3.3898944331674725
_cell_length_b       3.389894433145554
_cell_length_c       25.93052527150181
_cell_angle_alpha    90.0
_cell_angle_beta     90.0
_cell_angle_gamma    120.0000000002139

_space_group_name_H-M_alt    "P 1"
_space_group_IT_number       1

loop_
  _space_group_symop_operation_xyz
  'x, y, z'

loop_
  _atom_site_type_symbol
  _atom_site_label
  _atom_site_symmetry_multiplicity
  _atom_site_fract_x
  _atom_site_fract_y
  _atom_site_fract_z
  _atom_site_occupancy
  C   C1        1.0  0.0  0.0  0.43069403886472934  1.0000
  C   C2        1.0  0.3333329854322145  0.6666669831836742  0.6070141442771342  1.0000
  H   H1        1.0  0.6666669847440475  0.3333329859851446  0.3470812837675598  1.0000
  Hf  Hf1       1.0  0.3333329854322145  0.6666669831836742  0.3847088263090618  1.0000
  Hf  Hf2       1.0  0.6666669847440475  0.3333329859851446  0.4772177714785952  1.0000
  N   N1        1.0  0.3333329854322145  0.6666669831836742  0.6529187162324401  1.0000
  S   S1        1.0  0.3333329854322145  0.6666669831836742  0.5421323022170336  1.0000
