data_image0
_chemical_formula_structural       C3N2Zr2
_chemical_formula_sum              "C3 N2 Zr2"
_cell_length_a       3.4010800606255547
_cell_length_b       3.401080060619897
_cell_length_c       25.86733491430711
_cell_angle_alpha    90.0
_cell_angle_beta     90.0
_cell_angle_gamma    120.00000000005502

_space_group_name_H-M_alt    "P 1"
_space_group_IT_number       1

loop_
  _space_group_symop_operation_xyz
  'x, y, z'

loop_
  _atom_site_type_symbol
  _atom_site_label
  _atom_site_symmetry_multiplicity
  _atom_site_fract_x
  _atom_site_fract_y
  _atom_site_fract_z
  _atom_site_occupancy
  C   C1        1.0  0.0  0.0  0.5000000314533549  1.0000
  C   C2        1.0  0.3333329854322145  0.6666669831836742  0.6055178112092272  1.0000
  C   C3        1.0  0.6666669847440474  0.3333329859851446  0.3944821892567484  1.0000
  N   N1        1.0  0.3333329854322145  0.6666669831836742  0.652070844181859  1.0000
  N   N2        1.0  0.6666669847440474  0.3333329859851446  0.347929155818141  1.0000
  Zr  Zr1       1.0  0.3333329854322145  0.6666669831836742  0.451843336983986  1.0000
  Zr  Zr2       1.0  0.6666669847440474  0.3333329859851446  0.5481566630160059  1.0000
