data_image0
_chemical_formula_structural       CHN2Sc2
_chemical_formula_sum              "C1 H1 N2 Sc2"
_cell_length_a       3.2703292721068538
_cell_length_b       3.2703292720974093
_cell_length_c       24.086411139229597
_cell_angle_alpha    90.0
_cell_angle_beta     90.0
_cell_angle_gamma    120.00000000009554

_space_group_name_H-M_alt    "P 1"
_space_group_IT_number       1

loop_
  _space_group_symop_operation_xyz
  'x, y, z'

loop_
  _atom_site_type_symbol
  _atom_site_label
  _atom_site_symmetry_multiplicity
  _atom_site_fract_x
  _atom_site_fract_y
  _atom_site_fract_z
  _atom_site_occupancy
  C   C1        1.0  0.3333329854322145  0.6666669831836741  0.5765742139769419  1.0000
  H   H1        1.0  0.6666669847440474  0.33333298598514444  0.37365466976280554  1.0000
  N   N1        1.0  0.0  0.0  0.4651615767670959  1.0000
  N   N2        1.0  0.3333329854322145  0.6666669831836741  0.6263453302371944  1.0000
  Sc  Sc1       1.0  0.3333329854322145  0.6666669831836741  0.4146715793750009  1.0000
  Sc  Sc2       1.0  0.6666669847440474  0.33333298598514444  0.5158840715982158  1.0000
