data_image0
_chemical_formula_structural       BrHNOZr2
_chemical_formula_sum              "Br1 H1 N1 O1 Zr2"
_cell_length_a       3.426830890938545
_cell_length_b       3.426830890935892
_cell_length_c       24.55434010212258
_cell_angle_alpha    90.0
_cell_angle_beta     90.0
_cell_angle_gamma    120.00000000002561

_space_group_name_H-M_alt    "P 1"
_space_group_IT_number       1

loop_
  _space_group_symop_operation_xyz
  'x, y, z'

loop_
  _atom_site_type_symbol
  _atom_site_label
  _atom_site_symmetry_multiplicity
  _atom_site_fract_x
  _atom_site_fract_y
  _atom_site_fract_z
  _atom_site_occupancy
  Br  Br1       1.0  0.3333329854322145  0.6666669831836742  0.6334660201590187  1.0000
  H   H1        1.0  0.6666669847440474  0.3333329859851446  0.3665339798409815  1.0000
  N   N1        1.0  0.0  0.0  0.505219232847569  1.0000
  O   O1        1.0  0.6666669847440474  0.3333329859851446  0.4067973647292928  1.0000
  Zr  Zr1       1.0  0.3333329854322145  0.6666669831836742  0.4595396153319433  1.0000
  Zr  Zr2       1.0  0.6666669847440474  0.3333329859851446  0.5531536754529973  1.0000
