data_image0
_chemical_formula_structural       C2NOPSZr2
_chemical_formula_sum              "C2 N1 O1 P1 S1 Zr2"
_cell_length_a       3.3781909441956737
_cell_length_b       3.378190944197081
_cell_length_c       28.196943461644413
_cell_angle_alpha    90.0
_cell_angle_beta     90.0
_cell_angle_gamma    119.99999999998623

_space_group_name_H-M_alt    "P 1"
_space_group_IT_number       1

loop_
  _space_group_symop_operation_xyz
  'x, y, z'

loop_
  _atom_site_type_symbol
  _atom_site_label
  _atom_site_symmetry_multiplicity
  _atom_site_fract_x
  _atom_site_fract_y
  _atom_site_fract_z
  _atom_site_occupancy
  C   C1        1.0  0.0  0.0  0.4876124988393116  1.0000
  C   C2        1.0  0.3333329854322145  0.6666669831836742  0.6257624188182581  1.0000
  N   N1        1.0  0.3333329854322145  0.6666669831836742  0.5812680625060735  1.0000
  O   O1        1.0  0.6666669847440475  0.3333329859851446  0.3191835317981351  1.0000
  P   P1        1.0  0.6666669847440475  0.3333329859851446  0.3721530400056387  1.0000
  S   S1        1.0  0.3333329854322145  0.6666669831836742  0.6808164682018649  1.0000
  Zr  Zr1       1.0  0.3333329854322145  0.6666669831836742  0.4425831463414737  1.0000
  Zr  Zr2       1.0  0.6666669847440475  0.3333329859851446  0.5323055210440888  1.0000
