data_image0
_chemical_formula_structural       C2FNOTi2
_chemical_formula_sum              "C2 F1 N1 O1 Ti2"
_cell_length_a       3.231535756403654
_cell_length_b       3.23153575640261
_cell_length_c       25.248052702173883
_cell_angle_alpha    90.0
_cell_angle_beta     90.0
_cell_angle_gamma    120.0000000000107

_space_group_name_H-M_alt    "P 1"
_space_group_IT_number       1

loop_
  _space_group_symop_operation_xyz
  'x, y, z'

loop_
  _atom_site_type_symbol
  _atom_site_label
  _atom_site_symmetry_multiplicity
  _atom_site_fract_x
  _atom_site_fract_y
  _atom_site_fract_z
  _atom_site_occupancy
  C   C1        1.0  0.0  0.0  0.5511991705388378  1.0000
  C   C2        1.0  0.6666669847440475  0.3333329859851446  0.403539275872448  1.0000
  F   F1        1.0  0.3333329854322145  0.6666669831836742  0.6435368657470725  1.0000
  N   N1        1.0  0.6666669847440475  0.3333329859851446  0.35646313425292764  1.0000
  O   O1        1.0  0.6666669847440475  0.3333329859851446  0.45643901203362003  1.0000
  Ti  Ti1       1.0  0.3333329854322145  0.6666669831836742  0.5074344752981382  1.0000
  Ti  Ti2       1.0  0.6666669847440475  0.3333329859851446  0.5949791602921739  1.0000
