data_image0
_chemical_formula_structural       C3N2O2Y2
_chemical_formula_sum              "C3 N2 O2 Y2"
_cell_length_a       3.639581086658851
_cell_length_b       3.6395810866632496
_cell_length_c       28.4539137623912
_cell_angle_alpha    90.0
_cell_angle_beta     90.0
_cell_angle_gamma    119.99999999996002

_space_group_name_H-M_alt    "P 1"
_space_group_IT_number       1

loop_
  _space_group_symop_operation_xyz
  'x, y, z'

loop_
  _atom_site_type_symbol
  _atom_site_label
  _atom_site_symmetry_multiplicity
  _atom_site_fract_x
  _atom_site_fract_y
  _atom_site_fract_z
  _atom_site_occupancy
  C   C1        1.0  0.0  0.0  0.5000000247844136  1.0000
  C   C2        1.0  0.33333298543221457  0.6666669831836741  0.6413119971898139  1.0000
  C   C3        1.0  0.6666669847440474  0.3333329859851446  0.3586880024402763  1.0000
  N   N1        1.0  0.33333298543221457  0.6666669831836741  0.5975083766760557  1.0000
  N   N2        1.0  0.6666669847440474  0.3333329859851446  0.40249162332395094  1.0000
  O   O1        1.0  0.33333298543221457  0.6666669831836741  0.683699048392573  1.0000
  O   O2        1.0  0.6666669847440474  0.3333329859851446  0.31630095160742705  1.0000
  Y   Y1        1.0  0.33333298543221457  0.6666669831836741  0.45195345887167154  1.0000
  Y   Y2        1.0  0.6666669847440474  0.3333329859851446  0.5480465407584122  1.0000
