data_image0
_chemical_formula_structural       CClHf2OP
_chemical_formula_sum              "C1 Cl1 Hf2 O1 P1"
_cell_length_a       3.33965288783978
_cell_length_b       3.339652887825979
_cell_length_c       25.68720764295807
_cell_angle_alpha    90.0
_cell_angle_beta     90.0
_cell_angle_gamma    120.00000000013671

_space_group_name_H-M_alt    "P 1"
_space_group_IT_number       1

loop_
  _space_group_symop_operation_xyz
  'x, y, z'

loop_
  _atom_site_type_symbol
  _atom_site_label
  _atom_site_symmetry_multiplicity
  _atom_site_fract_x
  _atom_site_fract_y
  _atom_site_fract_z
  _atom_site_occupancy
  C   C1        1.0  0.0  0.0  0.46619747774959236  1.0000
  Cl  Cl1       1.0  0.6666669847440474  0.3333329859851446  0.35036895115640465  1.0000
  Hf  Hf1       1.0  0.33333298543221457  0.6666669831836742  0.42021264056838137  1.0000
  Hf  Hf2       1.0  0.6666669847440474  0.3333329859851446  0.5154749718089304  1.0000
  O   O1        1.0  0.33333298543221457  0.6666669831836742  0.6496310488435956  1.0000
  P   P1        1.0  0.33333298543221457  0.6666669831836742  0.5914403864621114  1.0000
