data_image0
_chemical_formula_structural       CO2Ti2
_chemical_formula_sum              "C1 O2 Ti2"
_cell_length_a       3.070478536039852
_cell_length_b       3.0704785360163402
_cell_length_c       22.39404945510574
_cell_angle_alpha    90.0
_cell_angle_beta     90.0
_cell_angle_gamma    120.00000000025332

_space_group_name_H-M_alt    "P 1"
_space_group_IT_number       1

loop_
  _space_group_symop_operation_xyz
  'x, y, z'

loop_
  _atom_site_type_symbol
  _atom_site_label
  _atom_site_symmetry_multiplicity
  _atom_site_fract_x
  _atom_site_fract_y
  _atom_site_fract_z
  _atom_site_occupancy
  C   C1        1.0  0.0  0.0  0.5000000442464708  1.0000
  O   O1        1.0  0.3333329854322144  0.6666669831836742  0.5981075232488584  1.0000
  O   O2        1.0  0.6666669847440474  0.3333329859851446  0.4018924767511416  1.0000
  Ti  Ti1       1.0  0.3333329854322144  0.6666669831836742  0.44171947837038944  1.0000
  Ti  Ti2       1.0  0.6666669847440474  0.3333329859851446  0.5582805209692034  1.0000
