data_image0
_chemical_formula_structural       C2NOTi2
_chemical_formula_sum              "C2 N1 O1 Ti2"
_cell_length_a       3.111689207801282
_cell_length_b       3.111689207814221
_cell_length_c       23.976175424473535
_cell_angle_alpha    90.0
_cell_angle_beta     90.0
_cell_angle_gamma    119.99999999986247

_space_group_name_H-M_alt    "P 1"
_space_group_IT_number       1

loop_
  _space_group_symop_operation_xyz
  'x, y, z'

loop_
  _atom_site_type_symbol
  _atom_site_label
  _atom_site_symmetry_multiplicity
  _atom_site_fract_x
  _atom_site_fract_y
  _atom_site_fract_z
  _atom_site_occupancy
  C   C1        1.0  0.0  0.0  0.4679711644844388  1.0000
  C   C2        1.0  0.3333329854322145  0.6666669831836742  0.5743966475787345  1.0000
  N   N1        1.0  0.3333329854322145  0.6666669831836742  0.6246273711021773  1.0000
  O   O1        1.0  0.6666669847440474  0.3333329859851446  0.37537262889782264  1.0000
  Ti  Ti1       1.0  0.3333329854322145  0.6666669831836742  0.41241979111704014  1.0000
  Ti  Ti2       1.0  0.6666669847440474  0.3333329859851446  0.5155140999775165  1.0000
