data_image0
_chemical_formula_structural       C2N3STi2
_chemical_formula_sum              "C2 N3 S1 Ti2"
_cell_length_a       3.271517683718619
_cell_length_b       3.2715176837175473
_cell_length_c       27.09410957344268
_cell_angle_alpha    90.0
_cell_angle_beta     90.0
_cell_angle_gamma    120.00000000001083

_space_group_name_H-M_alt    "P 1"
_space_group_IT_number       1

loop_
  _space_group_symop_operation_xyz
  'x, y, z'

loop_
  _atom_site_type_symbol
  _atom_site_label
  _atom_site_symmetry_multiplicity
  _atom_site_fract_x
  _atom_site_fract_y
  _atom_site_fract_z
  _atom_site_occupancy
  C   C1        1.0  0.33333298543221446  0.6666669831836742  0.6234242984565044  1.0000
  C   C2        1.0  0.6666669847440474  0.3333329859851446  0.3761399354686177  1.0000
  N   N1        1.0  0.0  0.0  0.5350096837258441  1.0000
  N   N2        1.0  0.33333298543221446  0.6666669831836742  0.6678244776561437  1.0000
  N   N3        1.0  0.6666669847440474  0.3333329859851446  0.3321755223438562  1.0000
  S   S1        1.0  0.6666669847440474  0.3333329859851446  0.43801397436322076  1.0000
  Ti  Ti1       1.0  0.33333298543221446  0.6666669831836742  0.4959024934334599  1.0000
  Ti  Ti2       1.0  0.6666669847440474  0.3333329859851446  0.5720112646852962  1.0000
