data_image0
_chemical_formula_structural       CClOSc2
_chemical_formula_sum              "C1 Cl1 O1 Sc2"
_cell_length_a       3.3457683706919963
_cell_length_b       3.3457683706818613
_cell_length_c       23.272253900575837
_cell_angle_alpha    90.0
_cell_angle_beta     90.0
_cell_angle_gamma    120.00000000010021

_space_group_name_H-M_alt    "P 1"
_space_group_IT_number       1

loop_
  _space_group_symop_operation_xyz
  'x, y, z'

loop_
  _atom_site_type_symbol
  _atom_site_label
  _atom_site_symmetry_multiplicity
  _atom_site_fract_x
  _atom_site_fract_y
  _atom_site_fract_z
  _atom_site_occupancy
  C   C1        1.0  0.0  0.0  0.5112035262496472  1.0000
  Cl  Cl1       1.0  0.6666669847440474  0.3333329859851446  0.3867266161004417  1.0000
  O   O1        1.0  0.3333329854322145  0.6666669831836742  0.6132733838995583  1.0000
  Sc  Sc1       1.0  0.3333329854322145  0.6666669831836742  0.46065568488069814  1.0000
  Sc  Sc2       1.0  0.6666669847440474  0.3333329859851446  0.5840414898540458  1.0000
