data_image0
_chemical_formula_structural       C2HNY2
_chemical_formula_sum              "C2 H1 N1 Y2"
_cell_length_a       3.6538885449205183
_cell_length_b       3.6538885449304823
_cell_length_c       24.458158877005715
_cell_angle_alpha    90.0
_cell_angle_beta     90.0
_cell_angle_gamma    119.99999999990979

_space_group_name_H-M_alt    "P 1"
_space_group_IT_number       1

loop_
  _space_group_symop_operation_xyz
  'x, y, z'

loop_
  _atom_site_type_symbol
  _atom_site_label
  _atom_site_symmetry_multiplicity
  _atom_site_fract_x
  _atom_site_fract_y
  _atom_site_fract_z
  _atom_site_occupancy
  C   C1        1.0  0.0  0.0  0.4659981720736383  1.0000
  C   C2        1.0  0.3333329854322145  0.6666669831836741  0.5829944300937312  1.0000
  H   H1        1.0  0.6666669847440472  0.3333329859851445  0.3679753674534075  1.0000
  N   N1        1.0  0.3333329854322145  0.6666669831836741  0.6320246325465925  1.0000
  Y   Y1        1.0  0.3333329854322145  0.6666669831836741  0.41017362309053906  1.0000
  Y   Y2        1.0  0.6666669847440472  0.3333329859851445  0.5217011085520483  1.0000
