data_image0
_chemical_formula_structural       ClHNOTi2
_chemical_formula_sum              "Cl1 H1 N1 O1 Ti2"
_cell_length_a       3.0252043323809206
_cell_length_b       3.0252043323788587
_cell_length_c       28.515595792110478
_cell_angle_alpha    90.0
_cell_angle_beta     90.0
_cell_angle_gamma    120.00000000002254

_space_group_name_H-M_alt    "P 1"
_space_group_IT_number       1

loop_
  _space_group_symop_operation_xyz
  'x, y, z'

loop_
  _atom_site_type_symbol
  _atom_site_label
  _atom_site_symmetry_multiplicity
  _atom_site_fract_x
  _atom_site_fract_y
  _atom_site_fract_z
  _atom_site_occupancy
  Cl  Cl1       1.0  0.3333329854322145  0.6666669831836742  0.6843832383649489  1.0000
  H   H1        1.0  0.6666669847440474  0.3333329859851445  0.3156167616350511  1.0000
  N   N1        1.0  0.0  0.0  0.3899534843772862  1.0000
  O   O1        1.0  0.3333329854322145  0.6666669831836742  0.4666084820507251  1.0000
  Ti  Ti1       1.0  0.3333329854322145  0.6666669831836742  0.3488561572355696  1.0000
  Ti  Ti2       1.0  0.6666669847440474  0.3333329859851445  0.433842218736685  1.0000
