data_image0
_chemical_formula_structural       C2HNO2Ti2
_chemical_formula_sum              "C2 H1 N1 O2 Ti2"
_cell_length_a       3.1497726543668554
_cell_length_b       3.149772654379424
_cell_length_c       26.297180803366913
_cell_angle_alpha    90.0
_cell_angle_beta     90.0
_cell_angle_gamma    119.99999999986801

_space_group_name_H-M_alt    "P 1"
_space_group_IT_number       1

loop_
  _space_group_symop_operation_xyz
  'x, y, z'

loop_
  _atom_site_type_symbol
  _atom_site_label
  _atom_site_symmetry_multiplicity
  _atom_site_fract_x
  _atom_site_fract_y
  _atom_site_fract_z
  _atom_site_occupancy
  C   C1        1.0  0.0  0.0  0.5296980224961689  1.0000
  C   C2        1.0  0.6666669847440472  0.3333329859851446  0.3873988369764459  1.0000
  H   H1        1.0  0.3333329854322145  0.6666669831836742  0.6577579905885691  1.0000
  N   N1        1.0  0.6666669847440472  0.3333329859851446  0.342242009411431  1.0000
  O   O1        1.0  0.3333329854322145  0.6666669831836742  0.6203003008674153  1.0000
  O   O2        1.0  0.6666669847440472  0.3333329859851446  0.4381395790581932  1.0000
  Ti  Ti1       1.0  0.3333329854322145  0.6666669831836742  0.4876517027325252  1.0000
  Ti  Ti2       1.0  0.6666669847440472  0.3333329859851446  0.5724788373667435  1.0000
