data_image0
_chemical_formula_structural       C2Hf2N3O2
_chemical_formula_sum              "C2 Hf2 N3 O2"
_cell_length_a       3.3239999550833828
_cell_length_b       3.3239999550590067
_cell_length_c       28.007378024547794
_cell_angle_alpha    90.0
_cell_angle_beta     90.0
_cell_angle_gamma    120.00000000024258

_space_group_name_H-M_alt    "P 1"
_space_group_IT_number       1

loop_
  _space_group_symop_operation_xyz
  'x, y, z'

loop_
  _atom_site_type_symbol
  _atom_site_label
  _atom_site_symmetry_multiplicity
  _atom_site_fract_x
  _atom_site_fract_y
  _atom_site_fract_z
  _atom_site_occupancy
  C   C1        1.0  0.33333298543221446  0.6666669831836742  0.6356500029056902  1.0000
  C   C2        1.0  0.6666669847440472  0.3333329859851446  0.3637365600334743  1.0000
  Hf  Hf1       1.0  0.33333298543221446  0.6666669831836742  0.46022351604472034  1.0000
  Hf  Hf2       1.0  0.6666669847440472  0.3333329859851446  0.5408620605060293  1.0000
  N   N1        1.0  0.0  0.0  0.49973053296500314  1.0000
  N   N2        1.0  0.33333298543221446  0.6666669831836742  0.5909491649412025  1.0000
  N   N3        1.0  0.6666669847440472  0.3333329859851446  0.3213438970299796  1.0000
  O   O1        1.0  0.33333298543221446  0.6666669831836742  0.6786561029700204  1.0000
  O   O2        1.0  0.6666669847440472  0.3333329859851446  0.41159803220930563  1.0000
