data_image0
_chemical_formula_structural       CClNOY2
_chemical_formula_sum              "C1 Cl1 N1 O1 Y2"
_cell_length_a       3.701011257314723
_cell_length_b       3.7010112573420337
_cell_length_c       25.03710743928808
_cell_angle_alpha    90.0
_cell_angle_beta     90.0
_cell_angle_gamma    119.9999999997559

_space_group_name_H-M_alt    "P 1"
_space_group_IT_number       1

loop_
  _space_group_symop_operation_xyz
  'x, y, z'

loop_
  _atom_site_type_symbol
  _atom_site_label
  _atom_site_symmetry_multiplicity
  _atom_site_fract_x
  _atom_site_fract_y
  _atom_site_fract_z
  _atom_site_occupancy
  C   C1        1.0  0.0  0.0  0.4831446927936078  1.0000
  Cl  Cl1       1.0  0.6666669847440473  0.3333329859851445  0.3594664448288963  1.0000
  N   N1        1.0  0.3333329854322145  0.6666669831836742  0.5887574054009981  1.0000
  O   O1        1.0  0.3333329854322145  0.6666669831836742  0.6405335551711036  1.0000
  Y   Y1        1.0  0.3333329854322145  0.6666669831836742  0.4297409961048029  1.0000
  Y   Y2        1.0  0.6666669847440473  0.3333329859851445  0.538877934976694  1.0000
