data_image0
_chemical_formula_structural       C2N3S2Sc2
_chemical_formula_sum              "C2 N3 S2 Sc2"
_cell_length_a       3.43209744800692
_cell_length_b       3.4320974479995265
_cell_length_c       28.934490653687746
_cell_angle_alpha    90.0
_cell_angle_beta     90.0
_cell_angle_gamma    120.00000000007127

_space_group_name_H-M_alt    "P 1"
_space_group_IT_number       1

loop_
  _space_group_symop_operation_xyz
  'x, y, z'

loop_
  _atom_site_type_symbol
  _atom_site_label
  _atom_site_symmetry_multiplicity
  _atom_site_fract_x
  _atom_site_fract_y
  _atom_site_fract_z
  _atom_site_occupancy
  C   C1        1.0  0.3333329854322145  0.6666669831836742  0.6352294654657471  1.0000
  C   C2        1.0  0.6666669847440474  0.3333329859851446  0.3521808718123527  1.0000
  N   N1        1.0  0.0  0.0  0.5074786869746619  1.0000
  N   N2        1.0  0.3333329854322145  0.6666669831836742  0.5920089177657484  1.0000
  N   N3        1.0  0.6666669847440474  0.3333329859851446  0.3110474660749881  1.0000
  S   S1        1.0  0.3333329854322145  0.6666669831836742  0.688952533925012  1.0000
  S   S2        1.0  0.6666669847440474  0.3333329859851446  0.41006488661313545  1.0000
  Sc  Sc1       1.0  0.3333329854322145  0.6666669831836742  0.46612333110809984  1.0000
  Sc  Sc2       1.0  0.6666669847440474  0.3333329859851446  0.54823127894844  1.0000
