data_image0
_chemical_formula_structural       CClHf2N2O
_chemical_formula_sum              "C1 Cl1 Hf2 N2 O1"
_cell_length_a       3.351907771038328
_cell_length_b       3.351907771038219
_cell_length_c       25.89124835400524
_cell_angle_alpha    90.0
_cell_angle_beta     90.0
_cell_angle_gamma    120.00000000000108

_space_group_name_H-M_alt    "P 1"
_space_group_IT_number       1

loop_
  _space_group_symop_operation_xyz
  'x, y, z'

loop_
  _atom_site_type_symbol
  _atom_site_label
  _atom_site_symmetry_multiplicity
  _atom_site_fract_x
  _atom_site_fract_y
  _atom_site_fract_z
  _atom_site_occupancy
  C   C1        1.0  0.33333298543221457  0.6666669831836741  0.6058321280322554  1.0000
  Cl  Cl1       1.0  0.6666669847440476  0.33333298598514444  0.3476078046506301  1.0000
  Hf  Hf1       1.0  0.33333298543221457  0.6666669831836741  0.4164465481184537  1.0000
  Hf  Hf2       1.0  0.6666669847440476  0.33333298598514444  0.5034494564746312  1.0000
  N   N1        1.0  0.0  0.0  0.4603861269553375  1.0000
  N   N2        1.0  0.33333298543221457  0.6666669831836741  0.557510022831102  1.0000
  O   O1        1.0  0.33333298543221457  0.6666669831836741  0.6523921953493699  1.0000
