data_image0
_chemical_formula_structural       BrCHOTi2
_chemical_formula_sum              "Br1 C1 H1 O1 Ti2"
_cell_length_a       3.2238515031465202
_cell_length_b       3.223851503141064
_cell_length_c       24.277523347104122
_cell_angle_alpha    90.0
_cell_angle_beta     90.0
_cell_angle_gamma    120.00000000005599

_space_group_name_H-M_alt    "P 1"
_space_group_IT_number       1

loop_
  _space_group_symop_operation_xyz
  'x, y, z'

loop_
  _atom_site_type_symbol
  _atom_site_label
  _atom_site_symmetry_multiplicity
  _atom_site_fract_x
  _atom_site_fract_y
  _atom_site_fract_z
  _atom_site_occupancy
  Br  Br1       1.0  0.3333329854322145  0.6666669831836742  0.6292867327806095  1.0000
  C   C1        1.0  0.0  0.0  0.5079235776262033  1.0000
  H   H1        1.0  0.6666669847440472  0.3333329859851446  0.37071326721939046  1.0000
  O   O1        1.0  0.6666669847440472  0.3333329859851446  0.41131105953708513  1.0000
  Ti  Ti1       1.0  0.3333329854322145  0.6666669831836742  0.46248587092997223  1.0000
  Ti  Ti2       1.0  0.6666669847440472  0.3333329859851446  0.5526114663857294  1.0000
