data_image0
_chemical_formula_structural       CClN2OTi2
_chemical_formula_sum              "C1 Cl1 N2 O1 Ti2"
_cell_length_a       3.2060459191774044
_cell_length_b       3.206045919183853
_cell_length_c       25.536383659141123
_cell_angle_alpha    90.0
_cell_angle_beta     90.0
_cell_angle_gamma    119.99999999993348

_space_group_name_H-M_alt    "P 1"
_space_group_IT_number       1

loop_
  _space_group_symop_operation_xyz
  'x, y, z'

loop_
  _atom_site_type_symbol
  _atom_site_label
  _atom_site_symmetry_multiplicity
  _atom_site_fract_x
  _atom_site_fract_y
  _atom_site_fract_z
  _atom_site_occupancy
  C   C1        1.0  0.3333329854322145  0.6666669831836742  0.6004034101828152  1.0000
  Cl  Cl1       1.0  0.6666669847440474  0.3333329859851446  0.3524383139026938  1.0000
  N   N1        1.0  0.0  0.0  0.4591312243072728  1.0000
  N   N2        1.0  0.3333329854322145  0.6666669831836742  0.5515855689668981  1.0000
  O   O1        1.0  0.3333329854322145  0.6666669831836742  0.6475616860973061  1.0000
  Ti  Ti1       1.0  0.3333329854322145  0.6666669831836742  0.418628618698704  1.0000
  Ti  Ti2       1.0  0.6666669847440474  0.3333329859851446  0.4995271909278782  1.0000
