data_image0
_chemical_formula_structural       C2ClHf2NOS
_chemical_formula_sum              "C2 Cl1 Hf2 N1 O1 S1"
_cell_length_a       3.5867489852476395
_cell_length_b       3.5867489852458125
_cell_length_c       27.222069755482465
_cell_angle_alpha    90.0
_cell_angle_beta     90.0
_cell_angle_gamma    120.00000000001685

_space_group_name_H-M_alt    "P 1"
_space_group_IT_number       1

loop_
  _space_group_symop_operation_xyz
  'x, y, z'

loop_
  _atom_site_type_symbol
  _atom_site_label
  _atom_site_symmetry_multiplicity
  _atom_site_fract_x
  _atom_site_fract_y
  _atom_site_fract_z
  _atom_site_occupancy
  C   C1        1.0  0.0  0.0  0.5305594631161332  1.0000
  C   C2        1.0  0.6666669847440474  0.3333329859851446  0.3743462577625724  1.0000
  Cl  Cl1       1.0  0.33333298543221457  0.6666669831836743  0.6693859033923231  1.0000
  Hf  Hf1       1.0  0.33333298543221457  0.6666669831836743  0.49849146608971723  1.0000
  Hf  Hf2       1.0  0.6666669847440474  0.3333329859851446  0.5912352293251006  1.0000
  N   N1        1.0  0.6666669847440474  0.3333329859851446  0.330614096607677  1.0000
  O   O1        1.0  0.33333298543221457  0.6666669831836743  0.5777188208723968  1.0000
  S   S1        1.0  0.6666669847440474  0.3333329859851446  0.4360110227484734  1.0000
