data_image0
_chemical_formula_structural       ClNOPSc2
_chemical_formula_sum              "Cl1 N1 O1 P1 Sc2"
_cell_length_a       3.316068303970317
_cell_length_b       3.3160683039636125
_cell_length_c       25.55711630796592
_cell_angle_alpha    90.0
_cell_angle_beta     90.0
_cell_angle_gamma    120.00000000006689

_space_group_name_H-M_alt    "P 1"
_space_group_IT_number       1

loop_
  _space_group_symop_operation_xyz
  'x, y, z'

loop_
  _atom_site_type_symbol
  _atom_site_label
  _atom_site_symmetry_multiplicity
  _atom_site_fract_x
  _atom_site_fract_y
  _atom_site_fract_z
  _atom_site_occupancy
  Cl  Cl1       1.0  0.6666669847440474  0.3333329859851446  0.3521524060676119  1.0000
  N   N1        1.0  0.0  0.0  0.4649779424439054  1.0000
  O   O1        1.0  0.3333329854322145  0.6666669831836742  0.6478475939323883  1.0000
  P   P1        1.0  0.3333329854322145  0.6666669831836742  0.5893802696627503  1.0000
  Sc  Sc1       1.0  0.3333329854322145  0.6666669831836742  0.4188981874413094  1.0000
  Sc  Sc2       1.0  0.6666669847440474  0.3333329859851446  0.5122277046418757  1.0000
