data_image0
_chemical_formula_structural       C2NO2PY2
_chemical_formula_sum              "C2 N1 O2 P1 Y2"
_cell_length_a       3.635196801083628
_cell_length_b       3.635196801099998
_cell_length_c       28.116421040353497
_cell_angle_alpha    90.0
_cell_angle_beta     90.0
_cell_angle_gamma    119.99999999985104

_space_group_name_H-M_alt    "P 1"
_space_group_IT_number       1

loop_
  _space_group_symop_operation_xyz
  'x, y, z'

loop_
  _atom_site_type_symbol
  _atom_site_label
  _atom_site_symmetry_multiplicity
  _atom_site_fract_x
  _atom_site_fract_y
  _atom_site_fract_z
  _atom_site_occupancy
  C   C1        1.0  0.0  0.0  0.5036056312363095  1.0000
  C   C2        1.0  0.6666669847440473  0.3333329859851446  0.3624014133624751  1.0000
  N   N1        1.0  0.6666669847440473  0.3333329859851446  0.3200976392793002  1.0000
  O   O1        1.0  0.33333298543221446  0.666666983183674  0.6799023607206998  1.0000
  O   O2        1.0  0.6666669847440473  0.3333329859851446  0.4098793867034422  1.0000
  P   P1        1.0  0.33333298543221446  0.666666983183674  0.6266647142840133  1.0000
  Y   Y1        1.0  0.33333298543221446  0.666666983183674  0.454925249811942  1.0000
  Y   Y2        1.0  0.6666669847440473  0.3333329859851446  0.5512665609564839  1.0000
