data_image0
_chemical_formula_structural       ClFHf2N
_chemical_formula_sum              "Cl1 F1 Hf2 N1"
_cell_length_a       3.3692734379138254
_cell_length_b       3.3692734379067835
_cell_length_c       23.281376479016995
_cell_angle_alpha    90.0
_cell_angle_beta     90.0
_cell_angle_gamma    120.00000000006915

_space_group_name_H-M_alt    "P 1"
_space_group_IT_number       1

loop_
  _space_group_symop_operation_xyz
  'x, y, z'

loop_
  _atom_site_type_symbol
  _atom_site_label
  _atom_site_symmetry_multiplicity
  _atom_site_fract_x
  _atom_site_fract_y
  _atom_site_fract_z
  _atom_site_occupancy
  Cl  Cl1       1.0  0.6666669847440473  0.3333329859851446  0.3865750810787115  1.0000
  F   F1        1.0  0.3333329854322145  0.6666669831836742  0.6134249189212886  1.0000
  Hf  Hf1       1.0  0.3333329854322145  0.6666669831836742  0.4626638697348188  1.0000
  Hf  Hf2       1.0  0.6666669847440473  0.3333329859851446  0.5583272524788729  1.0000
  N   N1        1.0  0.0  0.0  0.512973692058736  1.0000
