data_image0
_chemical_formula_structural       CHNO2Zr2
_chemical_formula_sum              "C1 H1 N1 O2 Zr2"
_cell_length_a       3.403236390665551
_cell_length_b       3.4032363906419905
_cell_length_c       25.253958114301955
_cell_angle_alpha    90.0
_cell_angle_beta     90.0
_cell_angle_gamma    120.00000000022902

_space_group_name_H-M_alt    "P 1"
_space_group_IT_number       1

loop_
  _space_group_symop_operation_xyz
  'x, y, z'

loop_
  _atom_site_type_symbol
  _atom_site_label
  _atom_site_symmetry_multiplicity
  _atom_site_fract_x
  _atom_site_fract_y
  _atom_site_fract_z
  _atom_site_occupancy
  C   C1        1.0  0.0  0.0  0.49388385055003003  1.0000
  H   H1        1.0  0.6666669847440473  0.3333329859851446  0.3563797785386788  1.0000
  N   N1        1.0  0.33333298543221446  0.6666669831836742  0.5909242001451644  1.0000
  O   O1        1.0  0.33333298543221446  0.6666669831836742  0.6436202214613211  1.0000
  O   O2        1.0  0.6666669847440473  0.3333329859851446  0.3954485059491367  1.0000
  Zr  Zr1       1.0  0.33333298543221446  0.6666669831836742  0.4486997352131445  1.0000
  Zr  Zr2       1.0  0.6666669847440473  0.3333329859851446  0.5522912985610711  1.0000
