data_image0
_chemical_formula_structural       CFN2SY2
_chemical_formula_sum              "C1 F1 N2 S1 Y2"
_cell_length_a       3.546449124154343
_cell_length_b       3.5464491241532103
_cell_length_c       26.072681968479454
_cell_angle_alpha    90.0
_cell_angle_beta     90.0
_cell_angle_gamma    120.00000000001057

_space_group_name_H-M_alt    "P 1"
_space_group_IT_number       1

loop_
  _space_group_symop_operation_xyz
  'x, y, z'

loop_
  _atom_site_type_symbol
  _atom_site_label
  _atom_site_symmetry_multiplicity
  _atom_site_fract_x
  _atom_site_fract_y
  _atom_site_fract_z
  _atom_site_occupancy
  C   C1        1.0  0.3333329854322147  0.6666669831836745  0.5950851271394111  1.0000
  F   F1        1.0  0.6666669847440474  0.3333329859851446  0.3451888843227  1.0000
  N   N1        1.0  0.0  0.0  0.4406871619138513  1.0000
  N   N2        1.0  0.3333329854322147  0.6666669831836745  0.5471315507460048  1.0000
  S   S1        1.0  0.3333329854322147  0.6666669831836745  0.6548111156773  1.0000
  Y   Y1        1.0  0.3333329854322147  0.6666669831836745  0.3921255001448233  1.0000
  Y   Y2        1.0  0.6666669847440474  0.3333329859851446  0.4943822177007619  1.0000
