data_image0
_chemical_formula_structural       C2N2O2Ti2
_chemical_formula_sum              "C2 N2 O2 Ti2"
_cell_length_a       3.184395352872577
_cell_length_b       3.1843953528620905
_cell_length_c       26.45271793301397
_cell_angle_alpha    90.0
_cell_angle_beta     90.0
_cell_angle_gamma    120.00000000010894

_space_group_name_H-M_alt    "P 1"
_space_group_IT_number       1

loop_
  _space_group_symop_operation_xyz
  'x, y, z'

loop_
  _atom_site_type_symbol
  _atom_site_label
  _atom_site_symmetry_multiplicity
  _atom_site_fract_x
  _atom_site_fract_y
  _atom_site_fract_z
  _atom_site_occupancy
  C   C1        1.0  0.0  0.0  0.5241336235269709  1.0000
  C   C2        1.0  0.6666669847440474  0.3333329859851446  0.3851590757747849  1.0000
  N   N1        1.0  0.33333298543221457  0.6666669831836742  0.6101785696508208  1.0000
  N   N2        1.0  0.6666669847440474  0.3333329859851446  0.3402296891680709  1.0000
  O   O1        1.0  0.33333298543221457  0.6666669831836742  0.659770310831929  1.0000
  O   O2        1.0  0.6666669847440474  0.3333329859851446  0.43560529040783685  1.0000
  Ti  Ti1       1.0  0.33333298543221457  0.6666669831836742  0.4849848270350607  1.0000
  Ti  Ti2       1.0  0.6666669847440474  0.3333329859851446  0.5745860210106379  1.0000
