data_image0
_chemical_formula_structural       C2N2OSSc2
_chemical_formula_sum              "C2 N2 O1 S1 Sc2"
_cell_length_a       3.4816636899072826
_cell_length_b       3.4816636898869153
_cell_length_c       27.4495960148639
_cell_angle_alpha    90.0
_cell_angle_beta     90.0
_cell_angle_gamma    120.00000000019352

_space_group_name_H-M_alt    "P 1"
_space_group_IT_number       1

loop_
  _space_group_symop_operation_xyz
  'x, y, z'

loop_
  _atom_site_type_symbol
  _atom_site_label
  _atom_site_symmetry_multiplicity
  _atom_site_fract_x
  _atom_site_fract_y
  _atom_site_fract_z
  _atom_site_occupancy
  C   C1        1.0  0.0  0.0  0.5356491661759839  1.0000
  C   C2        1.0  0.6666669847440474  0.3333329859851447  0.3712540486622481  1.0000
  N   N1        1.0  0.33333298543221473  0.6666669831836745  0.625069893596742  1.0000
  N   N2        1.0  0.6666669847440474  0.3333329859851447  0.3278736778175722  1.0000
  O   O1        1.0  0.33333298543221473  0.6666669831836745  0.6721263221824278  1.0000
  S   S1        1.0  0.6666669847440474  0.3333329859851447  0.4321523609919467  1.0000
  Sc  Sc1       1.0  0.33333298543221473  0.6666669831836745  0.49201322324691504  1.0000
  Sc  Sc2       1.0  0.6666669847440474  0.3333329859851447  0.5820265499604784  1.0000
