data_image0
_chemical_formula_structural       CHOSc2
_chemical_formula_sum              "C1 H1 O1 Sc2"
_cell_length_a       3.274223510207773
_cell_length_b       3.274223510200944
_cell_length_c       32.51411842404671
_cell_angle_alpha    90.0
_cell_angle_beta     90.0
_cell_angle_gamma    120.000000000069

_space_group_name_H-M_alt    "P 1"
_space_group_IT_number       1

loop_
  _space_group_symop_operation_xyz
  'x, y, z'

loop_
  _atom_site_type_symbol
  _atom_site_label
  _atom_site_symmetry_multiplicity
  _atom_site_fract_x
  _atom_site_fract_y
  _atom_site_fract_z
  _atom_site_occupancy
  C   C1        1.0  2.1267798847444578e-32  6.504086506320449e-32  0.4972776630959466  1.0000
  H   H1        1.0  0.6666669847440474  0.3333329859851446  0.4293402024440101  1.0000
  O   O1        1.0  0.3333329854322145  0.6666669831836742  0.5710701174435645  1.0000
  Sc  Sc1       1.0  0.3333329854322145  0.6666669831836742  0.4600026646973525  1.0000
  Sc  Sc2       1.0  0.6666669847440474  0.3333329859851446  0.5485088656701329  1.0000
