data_image0
_chemical_formula_structural       C2NO2PTi2
_chemical_formula_sum              "C2 N1 O2 P1 Ti2"
_cell_length_a       3.1356161576399737
_cell_length_b       3.135616157640748
_cell_length_c       27.47246575684192
_cell_angle_alpha    90.0
_cell_angle_beta     90.0
_cell_angle_gamma    119.99999999999183

_space_group_name_H-M_alt    "P 1"
_space_group_IT_number       1

loop_
  _space_group_symop_operation_xyz
  'x, y, z'

loop_
  _atom_site_type_symbol
  _atom_site_label
  _atom_site_symmetry_multiplicity
  _atom_site_fract_x
  _atom_site_fract_y
  _atom_site_fract_z
  _atom_site_occupancy
  C   C1        1.0  0.0  0.0  0.5076977341845053  1.0000
  C   C2        1.0  0.6666669847440474  0.3333329859851447  0.37083553789221346  1.0000
  N   N1        1.0  0.6666669847440474  0.3333329859851447  0.3276007359389858  1.0000
  O   O1        1.0  0.3333329854322145  0.6666669831836742  0.6723992640610142  1.0000
  O   O2        1.0  0.6666669847440474  0.3333329859851447  0.41948258111617737  1.0000
  P   P1        1.0  0.3333329854322145  0.6666669831836742  0.618176941097616  1.0000
  Ti  Ti1       1.0  0.3333329854322145  0.6666669831836742  0.46634980872084714  1.0000
  Ti  Ti2       1.0  0.6666669847440474  0.3333329859851447  0.5500113691460851  1.0000
