data_image0
_chemical_formula_structural       CClFTi2
_chemical_formula_sum              "C1 Cl1 F1 Ti2"
_cell_length_a       3.2406763276889285
_cell_length_b       3.240676327686063
_cell_length_c       23.04823573644467
_cell_angle_alpha    90.0
_cell_angle_beta     90.0
_cell_angle_gamma    120.00000000002925

_space_group_name_H-M_alt    "P 1"
_space_group_IT_number       1

loop_
  _space_group_symop_operation_xyz
  'x, y, z'

loop_
  _atom_site_type_symbol
  _atom_site_label
  _atom_site_symmetry_multiplicity
  _atom_site_fract_x
  _atom_site_fract_y
  _atom_site_fract_z
  _atom_site_occupancy
  C   C1        1.0  0.0  0.0  0.5108636174799497  1.0000
  Cl  Cl1       1.0  0.6666669847440476  0.3333329859851446  0.39048541948783033  1.0000
  F   F1        1.0  0.3333329854322145  0.6666669831836742  0.6095145805121696  1.0000
  Ti  Ti1       1.0  0.3333329854322145  0.6666669831836742  0.4629763577538282  1.0000
  Ti  Ti2       1.0  0.6666669847440476  0.3333329859851446  0.5577808342974329  1.0000
