data_image0
_chemical_formula_structural       C3N2OZr2
_chemical_formula_sum              "C3 N2 O1 Zr2"
_cell_length_a       3.393111800249161
_cell_length_b       3.3931118002434544
_cell_length_c       27.062436130567058
_cell_angle_alpha    90.0
_cell_angle_beta     90.0
_cell_angle_gamma    120.00000000005564

_space_group_name_H-M_alt    "P 1"
_space_group_IT_number       1

loop_
  _space_group_symop_operation_xyz
  'x, y, z'

loop_
  _atom_site_type_symbol
  _atom_site_label
  _atom_site_symmetry_multiplicity
  _atom_site_fract_x
  _atom_site_fract_y
  _atom_site_fract_z
  _atom_site_occupancy
  C   C1        1.0  0.0  0.0  0.5212138783723392  1.0000
  C   C2        1.0  0.33333298543221457  0.6666669831836741  0.6229236969665384  1.0000
  C   C3        1.0  0.6666669847440476  0.3333329859851446  0.3764774738672826  1.0000
  N   N1        1.0  0.33333298543221457  0.6666669831836741  0.6674357047319  1.0000
  N   N2        1.0  0.6666669847440476  0.3333329859851446  0.3325642952681001  1.0000
  O   O1        1.0  0.6666669847440476  0.3333329859851446  0.4258490891728501  1.0000
  Zr  Zr1       1.0  0.33333298543221457  0.6666669831836741  0.4768524077948988  1.0000
  Zr  Zr2       1.0  0.6666669847440476  0.3333329859851446  0.5679779000379293  1.0000
