data_image0
_chemical_formula_structural       CH2OTi2
_chemical_formula_sum              "C1 H2 O1 Ti2"
_cell_length_a       3.0887718507333166
_cell_length_b       3.0887718507337953
_cell_length_c       23.496298918547414
_cell_angle_alpha    90.0
_cell_angle_beta     90.0
_cell_angle_gamma    119.99999999999487

_space_group_name_H-M_alt    "P 1"
_space_group_IT_number       1

loop_
  _space_group_symop_operation_xyz
  'x, y, z'

loop_
  _atom_site_type_symbol
  _atom_site_label
  _atom_site_symmetry_multiplicity
  _atom_site_fract_x
  _atom_site_fract_y
  _atom_site_fract_z
  _atom_site_occupancy
  C   C1        1.0  0.0  0.0  0.5271594745271464  1.0000
  H   H1        1.0  0.3333329854322146  0.6666669831836742  0.616960950692723  1.0000
  H   H2        1.0  0.6666669847440474  0.3333329859851446  0.3830390493072769  1.0000
  O   O1        1.0  0.6666669847440474  0.3333329859851446  0.4250121274831701  1.0000
  Ti  Ti1       1.0  0.3333329854322146  0.6666669831836742  0.4785314571267834  1.0000
  Ti  Ti2       1.0  0.6666669847440474  0.3333329859851446  0.5760891030441261  1.0000
