data_image0
_chemical_formula_structural       BrCN2SSc2
_chemical_formula_sum              "Br1 C1 N2 S1 Sc2"
_cell_length_a       3.4834757482529413
_cell_length_b       3.4834757482482486
_cell_length_c       26.642581316058234
_cell_angle_alpha    90.0
_cell_angle_beta     90.0
_cell_angle_gamma    120.00000000004457

_space_group_name_H-M_alt    "P 1"
_space_group_IT_number       1

loop_
  _space_group_symop_operation_xyz
  'x, y, z'

loop_
  _atom_site_type_symbol
  _atom_site_label
  _atom_site_symmetry_multiplicity
  _atom_site_fract_x
  _atom_site_fract_y
  _atom_site_fract_z
  _atom_site_occupancy
  Br  Br1       1.0  0.6666669847440474  0.3333329859851446  0.3378051057903854  1.0000
  C   C1        1.0  0.3333329854322146  0.6666669831836742  0.6175227745470826  1.0000
  N   N1        1.0  0.0  0.0  0.44949935863684354  1.0000
  N   N2        1.0  0.3333329854322146  0.6666669831836742  0.6621948942096145  1.0000
  S   S1        1.0  0.3333329854322146  0.6666669831836742  0.5545659964848906  1.0000
  Sc  Sc1       1.0  0.3333329854322146  0.6666669831836742  0.4069178225046756  1.0000
  Sc  Sc2       1.0  0.6666669847440474  0.3333329859851446  0.4945285426938081  1.0000
