data_image0
_chemical_formula_structural       C2FNOSc2
_chemical_formula_sum              "C2 F1 N1 O1 Sc2"
_cell_length_a       3.3673513850786994
_cell_length_b       3.3673513850686887
_cell_length_c       25.348980760527233
_cell_angle_alpha    90.0
_cell_angle_beta     90.0
_cell_angle_gamma    120.00000000009835

_space_group_name_H-M_alt    "P 1"
_space_group_IT_number       1

loop_
  _space_group_symop_operation_xyz
  'x, y, z'

loop_
  _atom_site_type_symbol
  _atom_site_label
  _atom_site_symmetry_multiplicity
  _atom_site_fract_x
  _atom_site_fract_y
  _atom_site_fract_z
  _atom_site_occupancy
  C   C1        1.0  0.0  0.0  0.55203135789586  1.0000
  C   C2        1.0  0.6666669847440473  0.33333298598514444  0.4019135721821109  1.0000
  F   F1        1.0  0.3333329854322145  0.6666669831836741  0.6449561390643932  1.0000
  N   N1        1.0  0.6666669847440473  0.33333298598514444  0.35504386093560664  1.0000
  O   O1        1.0  0.6666669847440473  0.33333298598514444  0.45461609551803267  1.0000
  Sc  Sc1       1.0  0.3333329854322145  0.6666669831836741  0.5030062586450704  1.0000
  Sc  Sc2       1.0  0.6666669847440473  0.33333298598514444  0.6017535993446153  1.0000
