data_image0
_chemical_formula_structural       Cl2Hf2N
_chemical_formula_sum              "Cl2 Hf2 N1"
_cell_length_a       3.3960009132034
_cell_length_b       3.3960009131960973
_cell_length_c       23.7532095881223
_cell_angle_alpha    90.0
_cell_angle_beta     90.0
_cell_angle_gamma    120.00000000007114

_space_group_name_H-M_alt    "P 1"
_space_group_IT_number       1

loop_
  _space_group_symop_operation_xyz
  'x, y, z'

loop_
  _atom_site_type_symbol
  _atom_site_label
  _atom_site_symmetry_multiplicity
  _atom_site_fract_x
  _atom_site_fract_y
  _atom_site_fract_z
  _atom_site_occupancy
  Cl  Cl1       1.0  0.3333329854322145  0.6666669831836742  0.6211038358159221  1.0000
  Cl  Cl2       1.0  0.6666669847440473  0.3333329859851446  0.3788961641840779  1.0000
  Hf  Hf1       1.0  0.3333329854322145  0.6666669831836742  0.453370187697249  1.0000
  Hf  Hf2       1.0  0.6666669847440473  0.3333329859851446  0.5466298117937736  1.0000
  N   N1        1.0  0.0  0.0  0.5000000341008735  1.0000
