data_image0
_chemical_formula_structural       BrCOSc2
_chemical_formula_sum              "Br1 C1 O1 Sc2"
_cell_length_a       3.3811353188784676
_cell_length_b       3.3811353188749775
_cell_length_c       23.40873000078156
_cell_angle_alpha    90.0
_cell_angle_beta     90.0
_cell_angle_gamma    120.00000000003416

_space_group_name_H-M_alt    "P 1"
_space_group_IT_number       1

loop_
  _space_group_symop_operation_xyz
  'x, y, z'

loop_
  _atom_site_type_symbol
  _atom_site_label
  _atom_site_symmetry_multiplicity
  _atom_site_fract_x
  _atom_site_fract_y
  _atom_site_fract_z
  _atom_site_occupancy
  Br  Br1       1.0  0.6666669847440474  0.3333329859851446  0.3844719469915502  1.0000
  C   C1        1.0  0.0  0.0  0.5148910361486816  1.0000
  O   O1        1.0  0.3333329854322145  0.6666669831836742  0.6155280530084498  1.0000
  Sc  Sc1       1.0  0.3333329854322145  0.6666669831836742  0.46605762187915506  1.0000
  Sc  Sc2       1.0  0.6666669847440474  0.3333329859851446  0.5873220670162379  1.0000
