data_image0
_chemical_formula_structural       C3N2S2Ti2
_chemical_formula_sum              "C3 N2 S2 Ti2"
_cell_length_a       3.3742579643175996
_cell_length_b       3.3742579643211585
_cell_length_c       28.94579965852967
_cell_angle_alpha    90.0
_cell_angle_beta     90.0
_cell_angle_gamma    119.99999999996511

_space_group_name_H-M_alt    "P 1"
_space_group_IT_number       1

loop_
  _space_group_symop_operation_xyz
  'x, y, z'

loop_
  _atom_site_type_symbol
  _atom_site_label
  _atom_site_symmetry_multiplicity
  _atom_site_fract_x
  _atom_site_fract_y
  _atom_site_fract_z
  _atom_site_occupancy
  C   C1        1.0  0.0  0.0  0.5000000285568472  1.0000
  C   C2        1.0  0.3333329854322145  0.6666669831836742  0.6479189191309179  1.0000
  C   C3        1.0  0.6666669847440474  0.3333329859851446  0.35208108129214694  1.0000
  N   N1        1.0  0.3333329854322145  0.6666669831836742  0.6890740588903405  1.0000
  N   N2        1.0  0.6666669847440474  0.3333329859851446  0.31092594110965954  1.0000
  S   S1        1.0  0.3333329854322145  0.6666669831836742  0.5899369741374848  1.0000
  S   S2        1.0  0.6666669847440474  0.3333329859851446  0.4100630262855804  1.0000
  Ti  Ti1       1.0  0.3333329854322145  0.6666669831836742  0.46344324630663486  1.0000
  Ti  Ti2       1.0  0.6666669847440474  0.3333329859851446  0.5365567536933581  1.0000
