data_image0
_chemical_formula_structural       H2Hf2NO
_chemical_formula_sum              "H2 Hf2 N1 O1"
_cell_length_a       3.2199327722573106
_cell_length_b       3.2199327722563535
_cell_length_c       23.76269584240524
_cell_angle_alpha    90.0
_cell_angle_beta     90.0
_cell_angle_gamma    120.00000000000983

_space_group_name_H-M_alt    "P 1"
_space_group_IT_number       1

loop_
  _space_group_symop_operation_xyz
  'x, y, z'

loop_
  _atom_site_type_symbol
  _atom_site_label
  _atom_site_symmetry_multiplicity
  _atom_site_fract_x
  _atom_site_fract_y
  _atom_site_fract_z
  _atom_site_occupancy
  H   H1        1.0  0.3333329854322145  0.6666669831836742  0.6212550941320709  1.0000
  H   H2        1.0  0.6666669847440476  0.3333329859851446  0.378744905867929  1.0000
  Hf  Hf1       1.0  0.3333329854322145  0.6666669831836742  0.47633764559439806  1.0000
  Hf  Hf2       1.0  0.6666669847440476  0.3333329859851446  0.5785544205277701  1.0000
  N   N1        1.0  0.0  0.0  0.5266454943830392  1.0000
  O   O1        1.0  0.6666669847440476  0.3333329859851446  0.42073593795198433  1.0000
