data_image0
_chemical_formula_structural       Cl2Hf2NO2
_chemical_formula_sum              "Cl2 Hf2 N1 O2"
_cell_length_a       3.2390618026274725
_cell_length_b       3.2390618026079014
_cell_length_c       29.09985064277158
_cell_angle_alpha    90.0
_cell_angle_beta     90.0
_cell_angle_gamma    120.00000000019988

_space_group_name_H-M_alt    "P 1"
_space_group_IT_number       1

loop_
  _space_group_symop_operation_xyz
  'x, y, z'

loop_
  _atom_site_type_symbol
  _atom_site_label
  _atom_site_symmetry_multiplicity
  _atom_site_fract_x
  _atom_site_fract_y
  _atom_site_fract_z
  _atom_site_occupancy
  Cl  Cl1       1.0  0.33333298543221446  0.6666669831836742  0.6907200620895418  1.0000
  Cl  Cl2       1.0  0.6666669847440474  0.3333329859851446  0.3092799379104582  1.0000
  Hf  Hf1       1.0  0.33333298543221446  0.6666669831836742  0.4534412349271675  1.0000
  Hf  Hf2       1.0  0.6666669847440474  0.3333329859851446  0.5465587646161447  1.0000
  N   N1        1.0  0.0  0.0  0.5000000305980837  1.0000
  O   O1        1.0  0.33333298543221446  0.6666669831836742  0.5772429675851554  1.0000
  O   O2        1.0  0.6666669847440474  0.3333329859851446  0.42275703241485296  1.0000
