data_image0
_chemical_formula_structural       CClOSc2
_chemical_formula_sum              "C1 Cl1 O1 Sc2"
_cell_length_a       3.329035920853555
_cell_length_b       3.329035920844328
_cell_length_c       31.452246144319133
_cell_angle_alpha    90.0
_cell_angle_beta     90.0
_cell_angle_gamma    120.00000000009169

_space_group_name_H-M_alt    "P 1"
_space_group_IT_number       1

loop_
  _space_group_symop_operation_xyz
  'x, y, z'

loop_
  _atom_site_type_symbol
  _atom_site_label
  _atom_site_symmetry_multiplicity
  _atom_site_fract_x
  _atom_site_fract_y
  _atom_site_fract_z
  _atom_site_occupancy
  C   C1        1.0  1.0551802698776658e-32  8.746208977225229e-33  0.5089981319159398  1.0000
  Cl  Cl1       1.0  0.6666669847440475  0.33333298598514466  0.4155398484274923  1.0000
  O   O1        1.0  0.3333329854322145  0.6666669831836742  0.5846053588034645  1.0000
  Sc  Sc1       1.0  0.3333329854322145  0.6666669831836742  0.4702723631946654  1.0000
  Sc  Sc2       1.0  0.6666669847440475  0.33333298598514466  0.5623633720867506  1.0000
