data_image0
_chemical_formula_structural       CHHf2OP
_chemical_formula_sum              "C1 H1 Hf2 O1 P1"
_cell_length_a       3.2708248435342377
_cell_length_b       3.270824843531148
_cell_length_c       24.979278239216562
_cell_angle_alpha    90.0
_cell_angle_beta     90.0
_cell_angle_gamma    120.00000000003126

_space_group_name_H-M_alt    "P 1"
_space_group_IT_number       1

loop_
  _space_group_symop_operation_xyz
  'x, y, z'

loop_
  _atom_site_type_symbol
  _atom_site_label
  _atom_site_symmetry_multiplicity
  _atom_site_fract_x
  _atom_site_fract_y
  _atom_site_fract_z
  _atom_site_occupancy
  C   C1        1.0  0.0  0.0  0.4505623162010054  1.0000
  H   H1        1.0  0.6666669847440473  0.3333329859851446  0.3602986408898847  1.0000
  Hf  Hf1       1.0  0.33333298543221446  0.6666669831836742  0.4006888236342355  1.0000
  Hf  Hf2       1.0  0.6666669847440473  0.3333329859851446  0.5010875401959254  1.0000
  O   O1        1.0  0.33333298543221446  0.6666669831836742  0.6397013591101153  1.0000
  P   P1        1.0  0.33333298543221446  0.6666669831836742  0.5798803494522985  1.0000
