data_image0
_chemical_formula_structural       C2N3Y2
_chemical_formula_sum              "C2 N3 Y2"
_cell_length_a       3.593643929491016
_cell_length_b       3.593643929496624
_cell_length_c       26.047327704661043
_cell_angle_alpha    90.0
_cell_angle_beta     90.0
_cell_angle_gamma    119.99999999994839

_space_group_name_H-M_alt    "P 1"
_space_group_IT_number       1

loop_
  _space_group_symop_operation_xyz
  'x, y, z'

loop_
  _atom_site_type_symbol
  _atom_site_label
  _atom_site_symmetry_multiplicity
  _atom_site_fract_x
  _atom_site_fract_y
  _atom_site_fract_z
  _atom_site_occupancy
  C   C1        1.0  0.33333298543221457  0.6666669831836742  0.6083910684003359  1.0000
  C   C2        1.0  0.6666669847440476  0.3333329859851445  0.3916089320141557  1.0000
  N   N1        1.0  0.0  0.0  0.5000000279781577  1.0000
  N   N2        1.0  0.33333298543221457  0.6666669831836742  0.6544751115336299  1.0000
  N   N3        1.0  0.6666669847440476  0.3333329859851445  0.3455248884663701  1.0000
  Y   Y1        1.0  0.33333298543221457  0.6666669831836742  0.4490038616284932  1.0000
  Y   Y2        1.0  0.6666669847440476  0.3333329859851445  0.5509961383714999  1.0000
