data_image0
_chemical_formula_structural       CN3OSZr2
_chemical_formula_sum              "C1 N3 O1 S1 Zr2"
_cell_length_a       3.3732672690839705
_cell_length_b       3.3732672690771275
_cell_length_c       27.170648583760403
_cell_angle_alpha    90.0
_cell_angle_beta     90.0
_cell_angle_gamma    120.00000000006712

_space_group_name_H-M_alt    "P 1"
_space_group_IT_number       1

loop_
  _space_group_symop_operation_xyz
  'x, y, z'

loop_
  _atom_site_type_symbol
  _atom_site_label
  _atom_site_symmetry_multiplicity
  _atom_site_fract_x
  _atom_site_fract_y
  _atom_site_fract_z
  _atom_site_occupancy
  C   C1        1.0  0.6666669847440472  0.3333329859851446  0.38835866593605906  1.0000
  N   N1        1.0  0.0  0.0  0.5295653583792376  1.0000
  N   N2        1.0  0.3333329854322145  0.6666669831836742  0.6202341881559054  1.0000
  N   N3        1.0  0.6666669847440472  0.3333329859851446  0.4345798112460467  1.0000
  O   O1        1.0  0.3333329854322145  0.6666669831836742  0.6687602074622833  1.0000
  S   S1        1.0  0.6666669847440472  0.3333329859851446  0.33123979253771657  1.0000
  Zr  Zr1       1.0  0.3333329854322145  0.6666669831836742  0.4860823216822757  1.0000
  Zr  Zr2       1.0  0.6666669847440472  0.3333329859851446  0.5783455666749523  1.0000
