data_image0
_chemical_formula_structural       C2N3OSc2
_chemical_formula_sum              "C2 N3 O1 Sc2"
_cell_length_a       3.305728056973795
_cell_length_b       3.3057280569704477
_cell_length_c       26.82982606830244
_cell_angle_alpha    90.0
_cell_angle_beta     90.0
_cell_angle_gamma    120.0000000000335

_space_group_name_H-M_alt    "P 1"
_space_group_IT_number       1

loop_
  _space_group_symop_operation_xyz
  'x, y, z'

loop_
  _atom_site_type_symbol
  _atom_site_label
  _atom_site_symmetry_multiplicity
  _atom_site_fract_x
  _atom_site_fract_y
  _atom_site_fract_z
  _atom_site_occupancy
  C   C1        1.0  0.3333329854322145  0.6666669831836742  0.6198034659462768  1.0000
  C   C2        1.0  0.6666669847440474  0.3333329859851446  0.3797204661512149  1.0000
  N   N1        1.0  0.0  0.0  0.5197769090089875  1.0000
  N   N2        1.0  0.3333329854322145  0.6666669831836742  0.6645524284395989  1.0000
  N   N3        1.0  0.6666669847440474  0.3333329859851446  0.3354475715604013  1.0000
  O   O1        1.0  0.6666669847440474  0.3333329859851446  0.4295816807020554  1.0000
  Sc  Sc1       1.0  0.3333329854322145  0.6666669831836742  0.47615907024743026  1.0000
  Sc  Sc2       1.0  0.6666669847440474  0.3333329859851446  0.5666429121473167  1.0000
