data_image0
_chemical_formula_structural       CHN2OY2
_chemical_formula_sum              "C1 H1 N2 O1 Y2"
_cell_length_a       3.5285599262303076
_cell_length_b       3.5285599262252645
_cell_length_c       25.528757259556723
_cell_angle_alpha    90.0
_cell_angle_beta     90.0
_cell_angle_gamma    120.00000000004727

_space_group_name_H-M_alt    "P 1"
_space_group_IT_number       1

loop_
  _space_group_symop_operation_xyz
  'x, y, z'

loop_
  _atom_site_type_symbol
  _atom_site_label
  _atom_site_symmetry_multiplicity
  _atom_site_fract_x
  _atom_site_fract_y
  _atom_site_fract_z
  _atom_site_occupancy
  C   C1        1.0  0.6666669847440474  0.3333329859851446  0.3990968162125144  1.0000
  H   H1        1.0  0.3333329854322145  0.6666669831836742  0.6474563995225096  1.0000
  N   N1        1.0  0.0  0.0  0.5534457427375927  1.0000
  N   N2        1.0  0.6666669847440474  0.3333329859851446  0.35254360047749045  1.0000
  O   O1        1.0  0.6666669847440474  0.3333329859851446  0.4513596298547928  1.0000
  Y   Y1        1.0  0.3333329854322145  0.6666669831836742  0.5038882211484147  1.0000
  Y   Y2        1.0  0.6666669847440474  0.3333329859851446  0.6082591260931142  1.0000
