data_image0
_chemical_formula_structural       C2FNSTi2
_chemical_formula_sum              "C2 F1 N1 S1 Ti2"
_cell_length_a       3.2345768474031984
_cell_length_b       3.2345768474029235
_cell_length_c       25.485750475437648
_cell_angle_alpha    90.0
_cell_angle_beta     90.0
_cell_angle_gamma    120.00000000000281

_space_group_name_H-M_alt    "P 1"
_space_group_IT_number       1

loop_
  _space_group_symop_operation_xyz
  'x, y, z'

loop_
  _atom_site_type_symbol
  _atom_site_label
  _atom_site_symmetry_multiplicity
  _atom_site_fract_x
  _atom_site_fract_y
  _atom_site_fract_z
  _atom_site_occupancy
  C   C1        1.0  0.0  0.0  0.4423810698803483  1.0000
  C   C2        1.0  0.3333329854322144  0.6666669831836742  0.5860025369327422  1.0000
  F   F1        1.0  0.6666669847440472  0.3333329859851447  0.353138511996102  1.0000
  N   N1        1.0  0.3333329854322144  0.6666669831836742  0.5368525411637228  1.0000
  S   S1        1.0  0.3333329854322144  0.6666669831836742  0.6468614880038981  1.0000
  Ti  Ti1       1.0  0.3333329854322144  0.6666669831836742  0.4001130843871427  1.0000
  Ti  Ti2       1.0  0.6666669847440472  0.3333329859851447  0.487202862316802  1.0000
