data_image0
_chemical_formula_structural       C3N2O2Ti2
_chemical_formula_sum              "C3 N2 O2 Ti2"
_cell_length_a       3.175232828142374
_cell_length_b       3.175232828135728
_cell_length_c       27.843366688479026
_cell_angle_alpha    90.0
_cell_angle_beta     90.0
_cell_angle_gamma    120.00000000006925

_space_group_name_H-M_alt    "P 1"
_space_group_IT_number       1

loop_
  _space_group_symop_operation_xyz
  'x, y, z'

loop_
  _atom_site_type_symbol
  _atom_site_label
  _atom_site_symmetry_multiplicity
  _atom_site_fract_x
  _atom_site_fract_y
  _atom_site_fract_z
  _atom_site_occupancy
  C   C1        1.0  0.0  0.0  0.5000000332774857  1.0000
  C   C2        1.0  0.3333329854322145  0.6666669831836742  0.6340883173936372  1.0000
  C   C3        1.0  0.6666669847440474  0.3333329859851446  0.3659116821096838  1.0000
  N   N1        1.0  0.3333329854322145  0.6666669831836742  0.6767632269224109  1.0000
  N   N2        1.0  0.6666669847440474  0.3333329859851446  0.3232367730775891  1.0000
  O   O1        1.0  0.3333329854322145  0.6666669831836742  0.5861069686080382  1.0000
  O   O2        1.0  0.6666669847440474  0.3333329859851446  0.41389303139196226  1.0000
  Ti  Ti1       1.0  0.3333329854322145  0.6666669831836742  0.46027523360555056  1.0000
  Ti  Ti2       1.0  0.6666669847440474  0.3333329859851446  0.539724765897762  1.0000
