data_image0
_chemical_formula_structural       C2HNOSY2
_chemical_formula_sum              "C2 H1 N1 O1 S1 Y2"
_cell_length_a       3.71546682101614
_cell_length_b       3.715466821050723
_cell_length_c       27.56325702147064
_cell_angle_alpha    90.0
_cell_angle_beta     90.0
_cell_angle_gamma    119.99999999969211

_space_group_name_H-M_alt    "P 1"
_space_group_IT_number       1

loop_
  _space_group_symop_operation_xyz
  'x, y, z'

loop_
  _atom_site_type_symbol
  _atom_site_label
  _atom_site_symmetry_multiplicity
  _atom_site_fract_x
  _atom_site_fract_y
  _atom_site_fract_z
  _atom_site_occupancy
  C   C1        1.0  0.0  0.0  0.45716581010882046  1.0000
  C   C2        1.0  0.3333329854322145  0.6666669831836742  0.6303002433265839  1.0000
  H   H1        1.0  0.6666669847440472  0.3333329859851446  0.3265216441217151  1.0000
  N   N1        1.0  0.3333329854322145  0.6666669831836742  0.6734783558782848  1.0000
  O   O1        1.0  0.6666669847440472  0.3333329859851446  0.3623350868876418  1.0000
  S   S1        1.0  0.3333329854322145  0.6666669831836742  0.5696273703818026  1.0000
  Y   Y1        1.0  0.3333329854322145  0.6666669831836742  0.4073018263364108  1.0000
  Y   Y2        1.0  0.6666669847440472  0.3333329859851446  0.505364959670777  1.0000
