data_image0
_chemical_formula_structural       C2N3OSTi2
_chemical_formula_sum              "C2 N3 O1 S1 Ti2"
_cell_length_a       3.2774238968615506
_cell_length_b       3.2774238968672837
_cell_length_c       28.246398411529654
_cell_angle_alpha    90.0
_cell_angle_beta     90.0
_cell_angle_gamma    119.99999999994213

_space_group_name_H-M_alt    "P 1"
_space_group_IT_number       1

loop_
  _space_group_symop_operation_xyz
  'x, y, z'

loop_
  _atom_site_type_symbol
  _atom_site_label
  _atom_site_symmetry_multiplicity
  _atom_site_fract_x
  _atom_site_fract_y
  _atom_site_fract_z
  _atom_site_occupancy
  C   C1        1.0  0.33333298543221457  0.6666669831836742  0.6392042631753674  1.0000
  C   C2        1.0  0.6666669847440475  0.3333329859851446  0.3606968933420562  1.0000
  N   N1        1.0  0.0  0.0  0.4865458812785529  1.0000
  N   N2        1.0  0.33333298543221457  0.6666669831836742  0.6813753077869791  1.0000
  N   N3        1.0  0.6666669847440475  0.3333329859851446  0.31862469221302087  1.0000
  O   O1        1.0  0.6666669847440475  0.3333329859851446  0.4079780777998864  1.0000
  S   S1        1.0  0.33333298543221457  0.6666669831836742  0.5798760479992799  1.0000
  Ti  Ti1       1.0  0.33333298543221457  0.6666669831836742  0.4525333393668531  1.0000
  Ti  Ti2       1.0  0.6666669847440475  0.3333329859851446  0.524728965101317  1.0000
