data_image0
_chemical_formula_structural       C3N2O2Zr2
_chemical_formula_sum              "C3 N2 O2 Zr2"
_cell_length_a       3.377888965965685
_cell_length_b       3.3778889659264966
_cell_length_c       28.26243850845474
_cell_angle_alpha    90.0
_cell_angle_beta     90.0
_cell_angle_gamma    120.00000000038379

_space_group_name_H-M_alt    "P 1"
_space_group_IT_number       1

loop_
  _space_group_symop_operation_xyz
  'x, y, z'

loop_
  _atom_site_type_symbol
  _atom_site_label
  _atom_site_symmetry_multiplicity
  _atom_site_fract_x
  _atom_site_fract_y
  _atom_site_fract_z
  _atom_site_occupancy
  C   C1        1.0  0.0  0.0  0.5000000289683051  1.0000
  C   C2        1.0  0.3333329854322145  0.6666669831836742  0.6389254159820933  1.0000
  C   C3        1.0  0.6666669847440474  0.3333329859851446  0.3610745835855515  1.0000
  N   N1        1.0  0.3333329854322145  0.6666669831836742  0.5947966350809584  1.0000
  N   N2        1.0  0.6666669847440474  0.3333329859851446  0.405203364919049  1.0000
  O   O1        1.0  0.3333329854322145  0.6666669831836742  0.6815561404120298  1.0000
  O   O2        1.0  0.6666669847440474  0.3333329859851446  0.3184438595879701  1.0000
  Zr  Zr1       1.0  0.3333329854322145  0.6666669831836742  0.45652248371973525  1.0000
  Zr  Zr2       1.0  0.6666669847440474  0.3333329859851446  0.543477515847902  1.0000
