data_image0
_chemical_formula_structural       C3N2OSY2
_chemical_formula_sum              "C3 N2 O1 S1 Y2"
_cell_length_a       3.6701280314920486
_cell_length_b       3.670128031492085
_cell_length_c       28.68506831630016
_cell_angle_alpha    90.0
_cell_angle_beta     90.0
_cell_angle_gamma    119.99999999999969

_space_group_name_H-M_alt    "P 1"
_space_group_IT_number       1

loop_
  _space_group_symop_operation_xyz
  'x, y, z'

loop_
  _atom_site_type_symbol
  _atom_site_label
  _atom_site_symmetry_multiplicity
  _atom_site_fract_x
  _atom_site_fract_y
  _atom_site_fract_z
  _atom_site_occupancy
  C   C1        1.0  0.0  0.0  0.4929345954191223  1.0000
  C   C2        1.0  0.3333329854322145  0.6666669831836742  0.6318927085635442  1.0000
  C   C3        1.0  0.6666669847440474  0.3333329859851447  0.35521721994065186  1.0000
  N   N1        1.0  0.3333329854322145  0.6666669831836742  0.5883833604076613  1.0000
  N   N2        1.0  0.6666669847440474  0.3333329859851447  0.31375208525774323  1.0000
  O   O1        1.0  0.6666669847440474  0.3333329859851447  0.40165782163493197  1.0000
  S   S1        1.0  0.3333329854322145  0.6666669831836742  0.6862479147422567  1.0000
  Y   Y1        1.0  0.3333329854322145  0.6666669831836742  0.4458458975227829  1.0000
  Y   Y2        1.0  0.6666669847440474  0.3333329859851447  0.5408447492267447  1.0000
