data_image0
_chemical_formula_structural       CN2OPZr2
_chemical_formula_sum              "C1 N2 O1 P1 Zr2"
_cell_length_a       3.301413552165338
_cell_length_b       3.301413552162651
_cell_length_c       26.720250283574856
_cell_angle_alpha    90.0
_cell_angle_beta     90.0
_cell_angle_gamma    120.00000000002693

_space_group_name_H-M_alt    "P 1"
_space_group_IT_number       1

loop_
  _space_group_symop_operation_xyz
  'x, y, z'

loop_
  _atom_site_type_symbol
  _atom_site_label
  _atom_site_symmetry_multiplicity
  _atom_site_fract_x
  _atom_site_fract_y
  _atom_site_fract_z
  _atom_site_occupancy
  C   C1        1.0  0.3333329854322145  0.6666669831836741  0.617971880548929  1.0000
  N   N1        1.0  0.0  0.0  0.5142759682520327  1.0000
  N   N2        1.0  0.3333329854322145  0.6666669831836741  0.6631768076838573  1.0000
  O   O1        1.0  0.6666669847440474  0.3333329859851445  0.3368231923161427  1.0000
  P   P1        1.0  0.6666669847440474  0.3333329859851445  0.3926928015050888  1.0000
  Zr  Zr1       1.0  0.3333329854322145  0.6666669831836741  0.4662764442219349  1.0000
  Zr  Zr2       1.0  0.6666669847440474  0.3333329859851445  0.5616772960725724  1.0000
