data_image0
_chemical_formula_structural       BrHNOSc2
_chemical_formula_sum              "Br1 H1 N1 O1 Sc2"
_cell_length_a       3.347223584548623
_cell_length_b       3.347223584541786
_cell_length_c       24.471044817192837
_cell_angle_alpha    90.0
_cell_angle_beta     90.0
_cell_angle_gamma    120.00000000006757

_space_group_name_H-M_alt    "P 1"
_space_group_IT_number       1

loop_
  _space_group_symop_operation_xyz
  'x, y, z'

loop_
  _atom_site_type_symbol
  _atom_site_label
  _atom_site_symmetry_multiplicity
  _atom_site_fract_x
  _atom_site_fract_y
  _atom_site_fract_z
  _atom_site_occupancy
  Br  Br1       1.0  0.3333329854322145  0.6666669831836742  0.6322184006758556  1.0000
  H   H1        1.0  0.6666669847440474  0.3333329859851446  0.3677815993241445  1.0000
  N   N1        1.0  0.0  0.0  0.506227868781399  1.0000
  O   O1        1.0  0.6666669847440474  0.3333329859851446  0.4080672460351192  1.0000
  Sc  Sc1       1.0  0.3333329854322145  0.6666669831836742  0.45735086344926296  1.0000
  Sc  Sc2       1.0  0.6666669847440474  0.3333329859851446  0.5553022697251957  1.0000
