data_image0
_chemical_formula_structural       CClFOTi2
_chemical_formula_sum              "C1 Cl1 F1 O1 Ti2"
_cell_length_a       3.155973850339641
_cell_length_b       3.1559738503568147
_cell_length_c       27.06267334100963
_cell_angle_alpha    90.0
_cell_angle_beta     90.0
_cell_angle_gamma    119.99999999981999

_space_group_name_H-M_alt    "P 1"
_space_group_IT_number       1

loop_
  _space_group_symop_operation_xyz
  'x, y, z'

loop_
  _atom_site_type_symbol
  _atom_site_label
  _atom_site_symmetry_multiplicity
  _atom_site_fract_x
  _atom_site_fract_y
  _atom_site_fract_z
  _atom_site_occupancy
  C   C1        1.0  0.0  0.0  0.4190487821784944  1.0000
  Cl  Cl1       1.0  0.3333329854322145  0.6666669831836742  0.6674386197330409  1.0000
  F   F1        1.0  0.6666669847440475  0.3333329859851446  0.332561380266959  1.0000
  O   O1        1.0  0.3333329854322145  0.6666669831836742  0.5006136164575481  1.0000
  Ti  Ti1       1.0  0.3333329854322145  0.6666669831836742  0.3779543837741359  1.0000
  Ti  Ti2       1.0  0.6666669847440475  0.3333329859851446  0.468994800867194  1.0000
