data_image0
_chemical_formula_structural       C2N3O2Zr2
_chemical_formula_sum              "C2 N3 O2 Zr2"
_cell_length_a       3.3759465408224356
_cell_length_b       3.3759465408355136
_cell_length_c       28.106647737271416
_cell_angle_alpha    90.0
_cell_angle_beta     90.0
_cell_angle_gamma    119.99999999987185

_space_group_name_H-M_alt    "P 1"
_space_group_IT_number       1

loop_
  _space_group_symop_operation_xyz
  'x, y, z'

loop_
  _atom_site_type_symbol
  _atom_site_label
  _atom_site_symmetry_multiplicity
  _atom_site_fract_x
  _atom_site_fract_y
  _atom_site_fract_z
  _atom_site_occupancy
  C   C1        1.0  0.3333329854322145  0.6666669831836742  0.6369229764847815  1.0000
  C   C2        1.0  0.6666669847440474  0.3333329859851446  0.3630770230799668  1.0000
  N   N1        1.0  0.0  0.0  0.5000000291624018  1.0000
  N   N2        1.0  0.3333329854322145  0.6666669831836742  0.5925312689544326  1.0000
  N   N3        1.0  0.6666669847440474  0.3333329859851446  0.4074687310455762  1.0000
  O   O1        1.0  0.3333329854322145  0.6666669831836742  0.6797910556915914  1.0000
  O   O2        1.0  0.6666669847440474  0.3333329859851446  0.3202089443084086  1.0000
  Zr  Zr1       1.0  0.3333329854322145  0.6666669831836742  0.4587213100391106  1.0000
  Zr  Zr2       1.0  0.6666669847440474  0.3333329859851446  0.5412786895256302  1.0000
