data_image0
_chemical_formula_structural       CFHY2
_chemical_formula_sum              "C1 F1 H1 Y2"
_cell_length_a       3.597581526786426
_cell_length_b       3.597581526790332
_cell_length_c       22.991011555299814
_cell_angle_alpha    90.0
_cell_angle_beta     90.0
_cell_angle_gamma    119.99999999996409

_space_group_name_H-M_alt    "P 1"
_space_group_IT_number       1

loop_
  _space_group_symop_operation_xyz
  'x, y, z'

loop_
  _atom_site_type_symbol
  _atom_site_label
  _atom_site_symmetry_multiplicity
  _atom_site_fract_x
  _atom_site_fract_y
  _atom_site_fract_z
  _atom_site_occupancy
  C   C1        1.0  0.0  0.0  0.49766693099264303  1.0000
  F   F1        1.0  0.3333329854322145  0.6666669831836742  0.6085426698885136  1.0000
  H   H1        1.0  0.6666669847440475  0.3333329859851445  0.3914573301114864  1.0000
  Y   Y1        1.0  0.3333329854322145  0.6666669831836742  0.4382167797099666  1.0000
  Y   Y2        1.0  0.6666669847440475  0.3333329859851445  0.5575951219499711  1.0000
