data_image0
_chemical_formula_structural       CClHf2N2OS
_chemical_formula_sum              "C1 Cl1 Hf2 N2 O1 S1"
_cell_length_a       3.2848590893709417
_cell_length_b       3.2848590893755385
_cell_length_c       29.42507929387973
_cell_angle_alpha    90.0
_cell_angle_beta     90.0
_cell_angle_gamma    119.9999999999537

_space_group_name_H-M_alt    "P 1"
_space_group_IT_number       1

loop_
  _space_group_symop_operation_xyz
  'x, y, z'

loop_
  _atom_site_type_symbol
  _atom_site_label
  _atom_site_symmetry_multiplicity
  _atom_site_fract_x
  _atom_site_fract_y
  _atom_site_fract_z
  _atom_site_occupancy
  C   C1        1.0  0.6666669847440474  0.3333329859851446  0.3463103356341743  1.0000
  Cl  Cl1       1.0  0.3333329854322145  0.6666669831836742  0.6941384622922  1.0000
  Hf  Hf1       1.0  0.3333329854322145  0.6666669831836742  0.4604657385160562  1.0000
  Hf  Hf2       1.0  0.6666669847440474  0.3333329859851446  0.5514153683227119  1.0000
  N   N1        1.0  0.0  0.0  0.5084498465738461  1.0000
  N   N2        1.0  0.6666669847440474  0.3333329859851446  0.3058615377077999  1.0000
  O   O1        1.0  0.3333329854322145  0.6666669831836742  0.5809369032196297  1.0000
  S   S1        1.0  0.6666669847440474  0.3333329859851446  0.4044888219334589  1.0000
