data_image0
_chemical_formula_structural       CN3OSTi2
_chemical_formula_sum              "C1 N3 O1 S1 Ti2"
_cell_length_a       3.191637506684276
_cell_length_b       3.1916375066954923
_cell_length_c       28.049552347609296
_cell_angle_alpha    90.0
_cell_angle_beta     90.0
_cell_angle_gamma    119.99999999988374

_space_group_name_H-M_alt    "P 1"
_space_group_IT_number       1

loop_
  _space_group_symop_operation_xyz
  'x, y, z'

loop_
  _atom_site_type_symbol
  _atom_site_label
  _atom_site_symmetry_multiplicity
  _atom_site_fract_x
  _atom_site_fract_y
  _atom_site_fract_z
  _atom_site_occupancy
  C   C1        1.0  0.6666669847440473  0.3333329859851446  0.3633397939079573  1.0000
  N   N1        1.0  0.0  0.0  0.5057634897083636  1.0000
  N   N2        1.0  0.3333329854322145  0.6666669831836742  0.6077658411827678  1.0000
  N   N3        1.0  0.6666669847440473  0.3333329859851446  0.32086073561766065  1.0000
  O   O1        1.0  0.3333329854322145  0.6666669831836742  0.6791392643823393  1.0000
  S   S1        1.0  0.6666669847440473  0.3333329859851446  0.4225832049610565  1.0000
  Ti  Ti1       1.0  0.3333329854322145  0.6666669831836742  0.4839195365971694  1.0000
  Ti  Ti2       1.0  0.6666669847440473  0.3333329859851446  0.6393917628329346  1.0000
