data_image0
_chemical_formula_structural       ClN2OSc2
_chemical_formula_sum              "Cl1 N2 O1 Sc2"
_cell_length_a       3.347742394769124
_cell_length_b       3.347742394759465
_cell_length_c       24.57269824239156
_cell_angle_alpha    90.0
_cell_angle_beta     90.0
_cell_angle_gamma    120.00000000009545

_space_group_name_H-M_alt    "P 1"
_space_group_IT_number       1

loop_
  _space_group_symop_operation_xyz
  'x, y, z'

loop_
  _atom_site_type_symbol
  _atom_site_label
  _atom_site_symmetry_multiplicity
  _atom_site_fract_x
  _atom_site_fract_y
  _atom_site_fract_z
  _atom_site_occupancy
  Cl  Cl1       1.0  0.6666669847440475  0.3333329859851446  0.3662601441332015  1.0000
  N   N1        1.0  0.0  0.0  0.47904817970828933  1.0000
  N   N2        1.0  0.3333329854322145  0.6666669831836742  0.579882973088396  1.0000
  O   O1        1.0  0.3333329854322145  0.6666669831836742  0.6337398558667985  1.0000
  Sc  Sc1       1.0  0.3333329854322145  0.6666669831836742  0.4362129577182099  1.0000
  Sc  Sc2       1.0  0.6666669847440475  0.3333329859851446  0.5402497037286172  1.0000
