data_image0
_chemical_formula_structural       C3Hf2N2OS
_chemical_formula_sum              "C3 Hf2 N2 O1 S1"
_cell_length_a       3.429235379359904
_cell_length_b       3.4292353793473653
_cell_length_c       28.7601375773471
_cell_angle_alpha    90.0
_cell_angle_beta     90.0
_cell_angle_gamma    120.00000000012095

_space_group_name_H-M_alt    "P 1"
_space_group_IT_number       1

loop_
  _space_group_symop_operation_xyz
  'x, y, z'

loop_
  _atom_site_type_symbol
  _atom_site_label
  _atom_site_symmetry_multiplicity
  _atom_site_fract_x
  _atom_site_fract_y
  _atom_site_fract_z
  _atom_site_occupancy
  C   C1        1.0  0.0  0.0  0.5135212725645  1.0000
  C   C2        1.0  0.33333298543221457  0.6666669831836742  0.6451957035677266  1.0000
  C   C3        1.0  0.6666669847440475  0.3333329859851446  0.3543198284981371  1.0000
  Hf  Hf1       1.0  0.33333298543221457  0.6666669831836742  0.4708857073707494  1.0000
  Hf  Hf2       1.0  0.6666669847440475  0.3333329859851446  0.5525288077507405  1.0000
  N   N1        1.0  0.33333298543221457  0.6666669831836742  0.6017196948411353  1.0000
  N   N2        1.0  0.6666669847440475  0.3333329859851446  0.3129331344746015  1.0000
  O   O1        1.0  0.33333298543221457  0.6666669831836742  0.6870668655253984  1.0000
  S   S1        1.0  0.6666669847440475  0.3333329859851446  0.4129816109446974  1.0000
