data_image0
_chemical_formula_structural       BrNOZr2
_chemical_formula_sum              "Br1 N1 O1 Zr2"
_cell_length_a       3.3369802918055353
_cell_length_b       3.3369802918002347
_cell_length_c       23.564714085462573
_cell_angle_alpha    90.0
_cell_angle_beta     90.0
_cell_angle_gamma    120.00000000005254

_space_group_name_H-M_alt    "P 1"
_space_group_IT_number       1

loop_
  _space_group_symop_operation_xyz
  'x, y, z'

loop_
  _atom_site_type_symbol
  _atom_site_label
  _atom_site_symmetry_multiplicity
  _atom_site_fract_x
  _atom_site_fract_y
  _atom_site_fract_z
  _atom_site_occupancy
  Br  Br1       1.0  0.6666669847440474  0.3333329859851446  0.3819269763833983  1.0000
  N   N1        1.0  0.0  0.0  0.523071081760686  1.0000
  O   O1        1.0  0.3333329854322145  0.6666669831836742  0.6180730236166017  1.0000
  Zr  Zr1       1.0  0.3333329854322145  0.6666669831836742  0.46676903829665534  1.0000
  Zr  Zr2       1.0  0.6666669847440474  0.3333329859851446  0.5772736122089036  1.0000
