data_image0
_chemical_formula_structural       N2O2Ti2
_chemical_formula_sum              "N2 O2 Ti2"
_cell_length_a       3.1079189885507796
_cell_length_b       3.107918988575726
_cell_length_c       23.68818301621
_cell_angle_alpha    90.0
_cell_angle_beta     90.0
_cell_angle_gamma    119.99999999973448

_space_group_name_H-M_alt    "P 1"
_space_group_IT_number       1

loop_
  _space_group_symop_operation_xyz
  'x, y, z'

loop_
  _atom_site_type_symbol
  _atom_site_label
  _atom_site_symmetry_multiplicity
  _atom_site_fract_x
  _atom_site_fract_y
  _atom_site_fract_z
  _atom_site_occupancy
  N   N1        1.0  0.0  0.0  0.4681147717582823  1.0000
  N   N2        1.0  0.33333298543221435  0.6666669831836742  0.5643704419406236  1.0000
  O   O1        1.0  0.33333298543221435  0.6666669831836742  0.6200637257048701  1.0000
  O   O2        1.0  0.6666669847440474  0.3333329859851446  0.3799362742951299  1.0000
  Ti  Ti1       1.0  0.33333298543221435  0.6666669831836742  0.4170200021878757  1.0000
  Ti  Ti2       1.0  0.6666669847440474  0.3333329859851446  0.524261843345419  1.0000
