data_image0
_chemical_formula_structural       CHN2OSY2
_chemical_formula_sum              "C1 H1 N2 O1 S1 Y2"
_cell_length_a       3.6220655883261728
_cell_length_b       3.6220655883334385
_cell_length_c       27.50410408203849
_cell_angle_alpha    90.0
_cell_angle_beta     90.0
_cell_angle_gamma    119.99999999993366

_space_group_name_H-M_alt    "P 1"
_space_group_IT_number       1

loop_
  _space_group_symop_operation_xyz
  'x, y, z'

loop_
  _atom_site_type_symbol
  _atom_site_label
  _atom_site_symmetry_multiplicity
  _atom_site_fract_x
  _atom_site_fract_y
  _atom_site_fract_z
  _atom_site_occupancy
  C   C1        1.0  0.3333329854322146  0.6666669831836743  0.6295094015512578  1.0000
  H   H1        1.0  0.6666669847440474  0.3333329859851447  0.32722389259272167  1.0000
  N   N1        1.0  0.0  0.0  0.45505815649785963  1.0000
  N   N2        1.0  0.3333329854322146  0.6666669831836743  0.6727761074072783  1.0000
  O   O1        1.0  0.6666669847440474  0.3333329859851447  0.3631143790406043  1.0000
  S   S1        1.0  0.3333329854322146  0.6666669831836743  0.5685096097841966  1.0000
  Y   Y1        1.0  0.3333329854322146  0.6666669831836743  0.4092574687682362  1.0000
  Y   Y2        1.0  0.6666669847440474  0.3333329859851447  0.5049775292215756  1.0000
