data_image0
_chemical_formula_structural       ClHf2NO
_chemical_formula_sum              "Cl1 Hf2 N1 O1"
_cell_length_a       3.246502318251405
_cell_length_b       3.2465023182461006
_cell_length_c       23.36733791363689
_cell_angle_alpha    90.0
_cell_angle_beta     90.0
_cell_angle_gamma    120.00000000005406

_space_group_name_H-M_alt    "P 1"
_space_group_IT_number       1

loop_
  _space_group_symop_operation_xyz
  'x, y, z'

loop_
  _atom_site_type_symbol
  _atom_site_label
  _atom_site_symmetry_multiplicity
  _atom_site_fract_x
  _atom_site_fract_y
  _atom_site_fract_z
  _atom_site_occupancy
  Cl  Cl1       1.0  0.6666669847440474  0.3333329859851446  0.38515298718506197  1.0000
  Hf  Hf1       1.0  0.3333329854322146  0.6666669831836742  0.4630927888282798  1.0000
  Hf  Hf2       1.0  0.6666669847440474  0.3333329859851446  0.5733681387076415  1.0000
  N   N1        1.0  0.0  0.0  0.5197254616494337  1.0000
  O   O1        1.0  0.3333329854322146  0.6666669831836742  0.6148470128149381  1.0000
