data_image0
_chemical_formula_structural       C2N3O2Zr2
_chemical_formula_sum              "C2 N3 O2 Zr2"
_cell_length_a       3.383235779128709
_cell_length_b       3.3832357791295156
_cell_length_c       28.08935784879512
_cell_angle_alpha    90.0
_cell_angle_beta     90.0
_cell_angle_gamma    119.99999999999213

_space_group_name_H-M_alt    "P 1"
_space_group_IT_number       1

loop_
  _space_group_symop_operation_xyz
  'x, y, z'

loop_
  _atom_site_type_symbol
  _atom_site_label
  _atom_site_symmetry_multiplicity
  _atom_site_fract_x
  _atom_site_fract_y
  _atom_site_fract_z
  _atom_site_occupancy
  C   C1        1.0  0.3333329854322146  0.6666669831836743  0.6367207305794365  1.0000
  C   C2        1.0  0.6666669847440473  0.33333298598514477  0.3627004479481322  1.0000
  N   N1        1.0  0.0  0.0  0.4996693781758244  1.0000
  N   N2        1.0  0.3333329854322146  0.6666669831836743  0.5922702958009483  1.0000
  N   N3        1.0  0.6666669847440473  0.33333298598514477  0.3204060430447346  1.0000
  O   O1        1.0  0.3333329854322146  0.6666669831836743  0.6795939569552657  1.0000
  O   O2        1.0  0.6666669847440473  0.33333298598514477  0.4102706063850191  1.0000
  Zr  Zr1       1.0  0.3333329854322146  0.6666669831836743  0.4592205126923679  1.0000
  Zr  Zr2       1.0  0.6666669847440473  0.33333298598514477  0.5412745152837165  1.0000
