data_image0
_chemical_formula_structural       ClFHf2NO
_chemical_formula_sum              "Cl1 F1 Hf2 N1 O1"
_cell_length_a       3.262586929677675
_cell_length_b       3.2625869296790557
_cell_length_c       26.314919918071123
_cell_angle_alpha    90.0
_cell_angle_beta     90.0
_cell_angle_gamma    119.999999999986

_space_group_name_H-M_alt    "P 1"
_space_group_IT_number       1

loop_
  _space_group_symop_operation_xyz
  'x, y, z'

loop_
  _atom_site_type_symbol
  _atom_site_label
  _atom_site_symmetry_multiplicity
  _atom_site_fract_x
  _atom_site_fract_y
  _atom_site_fract_z
  _atom_site_occupancy
  Cl  Cl1       1.0  0.3333329854322144  0.6666669831836742  0.6579886988818282  1.0000
  F   F1        1.0  0.6666669847440474  0.3333329859851446  0.3420113011181718  1.0000
  Hf  Hf1       1.0  0.3333329854322144  0.6666669831836742  0.39292738605260064  1.0000
  Hf  Hf2       1.0  0.6666669847440474  0.3333329859851446  0.489489135834272  1.0000
  N   N1        1.0  0.0  0.0  0.4393858329899525  1.0000
  O   O1        1.0  0.3333329854322144  0.6666669831836742  0.5241827675576627  1.0000
