data_image0
_chemical_formula_structural       CClFHf2
_chemical_formula_sum              "C1 Cl1 F1 Hf2"
_cell_length_a       3.372872627391046
_cell_length_b       3.372872627388121
_cell_length_c       23.457173621782072
_cell_angle_alpha    90.0
_cell_angle_beta     90.0
_cell_angle_gamma    120.00000000002869

_space_group_name_H-M_alt    "P 1"
_space_group_IT_number       1

loop_
  _space_group_symop_operation_xyz
  'x, y, z'

loop_
  _atom_site_type_symbol
  _atom_site_label
  _atom_site_symmetry_multiplicity
  _atom_site_fract_x
  _atom_site_fract_y
  _atom_site_fract_z
  _atom_site_occupancy
  C   C1        1.0  0.0  0.0  0.5118260879833691  1.0000
  Cl  Cl1       1.0  0.6666669847440473  0.33333298598514477  0.3836779377223307  1.0000
  F   F1        1.0  0.3333329854322146  0.6666669831836743  0.6163220622776693  1.0000
  Hf  Hf1       1.0  0.3333329854322146  0.6666669831836743  0.4602827316324572  1.0000
  Hf  Hf2       1.0  0.6666669847440473  0.33333298598514477  0.5604274454838662  1.0000
