data_image0
_chemical_formula_structural       CClFY2
_chemical_formula_sum              "C1 Cl1 F1 Y2"
_cell_length_a       3.642489796202723
_cell_length_b       3.642489796217182
_cell_length_c       26.27192772462064
_cell_angle_alpha    90.0
_cell_angle_beta     90.0
_cell_angle_gamma    119.99999999986869

_space_group_name_H-M_alt    "P 1"
_space_group_IT_number       1

loop_
  _space_group_symop_operation_xyz
  'x, y, z'

loop_
  _atom_site_type_symbol
  _atom_site_label
  _atom_site_symmetry_multiplicity
  _atom_site_fract_x
  _atom_site_fract_y
  _atom_site_fract_z
  _atom_site_occupancy
  C   C1        1.0  1.1421380552033304e-32  5.0689992261607055e-33  0.5119730682168853  1.0000
  Cl  Cl1       1.0  0.6666669847440474  0.3333329859851446  0.3928502058515579  1.0000
  F   F1        1.0  0.3333329854322145  0.6666669831836742  0.6072116334742019  1.0000
  Y   Y1        1.0  0.3333329854322145  0.6666669831836742  0.4606084447355976  1.0000
  Y   Y2        1.0  0.6666669847440474  0.3333329859851446  0.5640070001650176  1.0000
