data_image0
_chemical_formula_structural       CClNOZr2
_chemical_formula_sum              "C1 Cl1 N1 O1 Zr2"
_cell_length_a       3.451867260086203
_cell_length_b       3.4518672600813494
_cell_length_c       24.670609756320516
_cell_angle_alpha    90.0
_cell_angle_beta     90.0
_cell_angle_gamma    120.0000000000465

_space_group_name_H-M_alt    "P 1"
_space_group_IT_number       1

loop_
  _space_group_symop_operation_xyz
  'x, y, z'

loop_
  _atom_site_type_symbol
  _atom_site_label
  _atom_site_symmetry_multiplicity
  _atom_site_fract_x
  _atom_site_fract_y
  _atom_site_fract_z
  _atom_site_occupancy
  C   C1        1.0  0.0  0.0  0.48341377499217575  1.0000
  Cl  Cl1       1.0  0.6666669847440474  0.3333329859851446  0.3648065487191388  1.0000
  N   N1        1.0  0.3333329854322145  0.6666669831836742  0.5812408282303169  1.0000
  O   O1        1.0  0.3333329854322145  0.6666669831836742  0.6351934512808612  1.0000
  Zr  Zr1       1.0  0.3333329854322145  0.6666669831836742  0.4380357793088499  1.0000
  Zr  Zr2       1.0  0.6666669847440474  0.3333329859851446  0.5425754721601662  1.0000
