data_image0
_chemical_formula_structural       CHN2OSSc2
_chemical_formula_sum              "C1 H1 N2 O1 S1 Sc2"
_cell_length_a       3.301325029218392
_cell_length_b       3.301325029176275
_cell_length_c       26.727957326308708
_cell_angle_alpha    90.0
_cell_angle_beta     90.0
_cell_angle_gamma    120.000000000422

_space_group_name_H-M_alt    "P 1"
_space_group_IT_number       1

loop_
  _space_group_symop_operation_xyz
  'x, y, z'

loop_
  _atom_site_type_symbol
  _atom_site_label
  _atom_site_symmetry_multiplicity
  _atom_site_fract_x
  _atom_site_fract_y
  _atom_site_fract_z
  _atom_site_occupancy
  C   C1        1.0  0.33333298543221457  0.6666669831836742  0.6052239307667863  1.0000
  H   H1        1.0  0.6666669847440475  0.3333329859851446  0.3367260688919603  1.0000
  N   N1        1.0  0.0  0.0  0.4635140616750363  1.0000
  N   N2        1.0  0.33333298543221457  0.6666669831836742  0.5583324151859727  1.0000
  O   O1        1.0  0.6666669847440475  0.3333329859851446  0.3736030447513069  1.0000
  S   S1        1.0  0.33333298543221457  0.6666669831836742  0.6632739311080397  1.0000
  Sc  Sc1       1.0  0.33333298543221457  0.6666669831836742  0.4189182854829456  1.0000
  Sc  Sc2       1.0  0.6666669847440475  0.3333329859851446  0.5107154094752584  1.0000
