data_image0
_chemical_formula_structural       C2HHf2NOS
_chemical_formula_sum              "C2 H1 Hf2 N1 O1 S1"
_cell_length_a       3.40830134983309
_cell_length_b       3.408301349808719
_cell_length_c       27.22514750008186
_cell_angle_alpha    90.0
_cell_angle_beta     90.0
_cell_angle_gamma    120.00000000023655

_space_group_name_H-M_alt    "P 1"
_space_group_IT_number       1

loop_
  _space_group_symop_operation_xyz
  'x, y, z'

loop_
  _atom_site_type_symbol
  _atom_site_label
  _atom_site_symmetry_multiplicity
  _atom_site_fract_x
  _atom_site_fract_y
  _atom_site_fract_z
  _atom_site_occupancy
  C   C1        1.0  0.0  0.0  0.4564478763682643  1.0000
  C   C2        1.0  0.33333298543221457  0.6666669831836741  0.625709678068048  1.0000
  H   H1        1.0  0.6666669847440474  0.3333329859851446  0.33057672139234273  1.0000
  Hf  Hf1       1.0  0.33333298543221457  0.6666669831836741  0.4152842370289149  1.0000
  Hf  Hf2       1.0  0.6666669847440474  0.3333329859851446  0.5022085517357647  1.0000
  N   N1        1.0  0.33333298543221457  0.6666669831836741  0.6694232786076572  1.0000
  O   O1        1.0  0.6666669847440474  0.3333329859851446  0.3668786431104136  1.0000
  S   S1        1.0  0.33333298543221457  0.6666669831836741  0.5636863134186169  1.0000
