data_image0
_chemical_formula_structural       C2FHf2NO
_chemical_formula_sum              "C2 F1 Hf2 N1 O1"
_cell_length_a       3.3455950900796787
_cell_length_b       3.34559509007699
_cell_length_c       25.583885387331065
_cell_angle_alpha    90.0
_cell_angle_beta     90.0
_cell_angle_gamma    120.00000000002657

_space_group_name_H-M_alt    "P 1"
_space_group_IT_number       1

loop_
  _space_group_symop_operation_xyz
  'x, y, z'

loop_
  _atom_site_type_symbol
  _atom_site_label
  _atom_site_symmetry_multiplicity
  _atom_site_fract_x
  _atom_site_fract_y
  _atom_site_fract_z
  _atom_site_occupancy
  C   C1        1.0  0.0  0.0  0.4486491020324086  1.0000
  C   C2        1.0  0.3333329854322145  0.6666669831836742  0.6011033465529101  1.0000
  F   F1        1.0  0.6666669847440474  0.3333329859851445  0.351783939919334  1.0000
  Hf  Hf1       1.0  0.3333329854322145  0.6666669831836742  0.4033263269600528  1.0000
  Hf  Hf2       1.0  0.6666669847440474  0.3333329859851445  0.4963528366072015  1.0000
  N   N1        1.0  0.3333329854322145  0.6666669831836742  0.5522580781339823  1.0000
  O   O1        1.0  0.3333329854322145  0.6666669831836742  0.648216060080666  1.0000
