data_image0
_chemical_formula_structural       ClNO2Zr2
_chemical_formula_sum              "Cl1 N1 O2 Zr2"
_cell_length_a       3.2783964279951574
_cell_length_b       3.27839642799569
_cell_length_c       25.976142632109365
_cell_angle_alpha    90.0
_cell_angle_beta     90.0
_cell_angle_gamma    119.99999999999463

_space_group_name_H-M_alt    "P 1"
_space_group_IT_number       1

loop_
  _space_group_symop_operation_xyz
  'x, y, z'

loop_
  _atom_site_type_symbol
  _atom_site_label
  _atom_site_symmetry_multiplicity
  _atom_site_fract_x
  _atom_site_fract_y
  _atom_site_fract_z
  _atom_site_occupancy
  Cl  Cl1       1.0  0.33333298543221446  0.6666669831836742  0.6535282344471341  1.0000
  N   N1        1.0  0.0  0.0  0.43672366292917747  1.0000
  O   O1        1.0  0.33333298543221446  0.6666669831836742  0.5253171708249886  1.0000
  O   O2        1.0  0.6666669847440472  0.3333329859851446  0.34647176555286596  1.0000
  Zr  Zr1       1.0  0.33333298543221446  0.6666669831836742  0.38421035924463337  1.0000
  Zr  Zr2       1.0  0.6666669847440472  0.3333329859851446  0.4898989502439553  1.0000
