data_image0
_chemical_formula_structural       NO2P2Sc2
_chemical_formula_sum              "N1 O2 P2 Sc2"
_cell_length_a       3.255148372018517
_cell_length_b       3.25514837199817
_cell_length_c       27.361961675872028
_cell_angle_alpha    90.0
_cell_angle_beta     90.0
_cell_angle_gamma    120.00000000020678

_space_group_name_H-M_alt    "P 1"
_space_group_IT_number       1

loop_
  _space_group_symop_operation_xyz
  'x, y, z'

loop_
  _atom_site_type_symbol
  _atom_site_label
  _atom_site_symmetry_multiplicity
  _atom_site_fract_x
  _atom_site_fract_y
  _atom_site_fract_z
  _atom_site_occupancy
  N   N1        1.0  0.0  0.0  0.5000000322206721  1.0000
  O   O1        1.0  0.33333298543221446  0.6666669831836742  0.6710762149800004  1.0000
  O   O2        1.0  0.6666669847440473  0.3333329859851446  0.3289237850199996  1.0000
  P   P1        1.0  0.33333298543221446  0.6666669831836742  0.616489280616622  1.0000
  P   P2        1.0  0.6666669847440473  0.3333329859851446  0.38351071938337794  1.0000
  Sc  Sc1       1.0  0.33333298543221446  0.6666669831836742  0.4561265677569427  1.0000
  Sc  Sc2       1.0  0.6666669847440473  0.3333329859851446  0.5438734317621436  1.0000
