data_image0
_chemical_formula_structural       CClFZr2
_chemical_formula_sum              "C1 Cl1 F1 Zr2"
_cell_length_a       3.4120680207921943
_cell_length_b       3.4120680207865557
_cell_length_c       23.537039828132645
_cell_angle_alpha    90.0
_cell_angle_beta     90.0
_cell_angle_gamma    120.00000000005467

_space_group_name_H-M_alt    "P 1"
_space_group_IT_number       1

loop_
  _space_group_symop_operation_xyz
  'x, y, z'

loop_
  _atom_site_type_symbol
  _atom_site_label
  _atom_site_symmetry_multiplicity
  _atom_site_fract_x
  _atom_site_fract_y
  _atom_site_fract_z
  _atom_site_occupancy
  C   C1        1.0  0.0  0.0  0.5118971822275227  1.0000
  Cl  Cl1       1.0  0.6666669847440476  0.3333329859851446  0.3823760364819857  1.0000
  F   F1        1.0  0.33333298543221457  0.6666669831836742  0.6176239635180143  1.0000
  Zr  Zr1       1.0  0.33333298543221457  0.6666669831836742  0.45915418887141407  1.0000
  Zr  Zr2       1.0  0.6666669847440476  0.3333329859851446  0.5622723431518906  1.0000
