data_image0
_chemical_formula_structural       CHOPZr2
_chemical_formula_sum              "C1 H1 O1 P1 Zr2"
_cell_length_a       3.3125597617560376
_cell_length_b       3.3125597617559945
_cell_length_c       25.08360567307809
_cell_angle_alpha    90.0
_cell_angle_beta     90.0
_cell_angle_gamma    120.00000000000043

_space_group_name_H-M_alt    "P 1"
_space_group_IT_number       1

loop_
  _space_group_symop_operation_xyz
  'x, y, z'

loop_
  _atom_site_type_symbol
  _atom_site_label
  _atom_site_symmetry_multiplicity
  _atom_site_fract_x
  _atom_site_fract_y
  _atom_site_fract_z
  _atom_site_occupancy
  C   C1        1.0  0.0  0.0  0.4501003909658599  1.0000
  H   H1        1.0  0.6666669847440474  0.3333329859851446  0.35880009107540634  1.0000
  O   O1        1.0  0.3333329854322145  0.6666669831836742  0.6411999089245934  1.0000
  P   P1        1.0  0.3333329854322145  0.6666669831836742  0.5816979399947457  1.0000
  Zr  Zr1       1.0  0.3333329854322145  0.6666669831836742  0.3990686647708399  1.0000
  Zr  Zr2       1.0  0.6666669847440474  0.3333329859851446  0.5015749641507428  1.0000
