data_image0
_chemical_formula_structural       CHOPSc2
_chemical_formula_sum              "C1 H1 O1 P1 Sc2"
_cell_length_a       3.3218626480635867
_cell_length_b       3.3218626480595455
_cell_length_c       25.01196309649993
_cell_angle_alpha    90.0
_cell_angle_beta     90.0
_cell_angle_gamma    120.00000000004025

_space_group_name_H-M_alt    "P 1"
_space_group_IT_number       1

loop_
  _space_group_symop_operation_xyz
  'x, y, z'

loop_
  _atom_site_type_symbol
  _atom_site_label
  _atom_site_symmetry_multiplicity
  _atom_site_fract_x
  _atom_site_fract_y
  _atom_site_fract_z
  _atom_site_occupancy
  C   C1        1.0  0.0  0.0  0.4502916624884742  1.0000
  H   H1        1.0  0.6666669847440474  0.33333298598514444  0.3598278138056035  1.0000
  O   O1        1.0  0.33333298543221446  0.6666669831836741  0.6401721861943964  1.0000
  P   P1        1.0  0.33333298543221446  0.6666669831836741  0.5804209966087253  1.0000
  Sc  Sc1       1.0  0.33333298543221446  0.6666669831836741  0.3996064825143063  1.0000
  Sc  Sc2       1.0  0.6666669847440474  0.33333298598514444  0.4986617579490595  1.0000
