data_image0
_chemical_formula_structural       C2N3O2Y2
_chemical_formula_sum              "C2 N3 O2 Y2"
_cell_length_a       3.553136947045153
_cell_length_b       3.553136947043089
_cell_length_c       28.313578777800977
_cell_angle_alpha    90.0
_cell_angle_beta     90.0
_cell_angle_gamma    120.00000000001923

_space_group_name_H-M_alt    "P 1"
_space_group_IT_number       1

loop_
  _space_group_symop_operation_xyz
  'x, y, z'

loop_
  _atom_site_type_symbol
  _atom_site_label
  _atom_site_symmetry_multiplicity
  _atom_site_fract_x
  _atom_site_fract_y
  _atom_site_fract_z
  _atom_site_occupancy
  C   C1        1.0  0.3333329854322147  0.6666669831836742  0.6401443557949584  1.0000
  C   C2        1.0  0.6666669847440476  0.3333329859851446  0.359855643814983  1.0000
  N   N1        1.0  0.0  0.0  0.5000000261339311  1.0000
  N   N2        1.0  0.3333329854322147  0.6666669831836742  0.682131316898153  1.0000
  N   N3        1.0  0.6666669847440476  0.3333329859851446  0.317868683101847  1.0000
  O   O1        1.0  0.3333329854322147  0.6666669831836742  0.592951419518153  1.0000
  O   O2        1.0  0.6666669847440476  0.3333329859851446  0.4070485804818467  1.0000
  Y   Y1        1.0  0.3333329854322147  0.6666669831836742  0.4535099388075926  1.0000
  Y   Y2        1.0  0.6666669847440476  0.3333329859851446  0.546490060802342  1.0000
