data_image0
_chemical_formula_structural       C2N2OTi2
_chemical_formula_sum              "C2 N2 O1 Ti2"
_cell_length_a       3.1823412656056274
_cell_length_b       3.1823412656052343
_cell_length_c       25.266294332377104
_cell_angle_alpha    90.0
_cell_angle_beta     90.0
_cell_angle_gamma    120.00000000000409

_space_group_name_H-M_alt    "P 1"
_space_group_IT_number       1

loop_
  _space_group_symop_operation_xyz
  'x, y, z'

loop_
  _atom_site_type_symbol
  _atom_site_label
  _atom_site_symmetry_multiplicity
  _atom_site_fract_x
  _atom_site_fract_y
  _atom_site_fract_z
  _atom_site_occupancy
  C   C1        1.0  0.0  0.0  0.4984509003769081  1.0000
  C   C2        1.0  0.3333329854322145  0.6666669831836742  0.596171839205668  1.0000
  N   N1        1.0  0.3333329854322145  0.6666669831836742  0.6437942231810745  1.0000
  N   N2        1.0  0.6666669847440474  0.3333329859851446  0.408008516995712  1.0000
  O   O1        1.0  0.6666669847440474  0.3333329859851446  0.3562057768189255  1.0000
  Ti  Ti1       1.0  0.3333329854322145  0.6666669831836742  0.446095041444784  1.0000
  Ti  Ti2       1.0  0.6666669847440474  0.3333329859851446  0.5404700098944751  1.0000
