data_image0
_chemical_formula_structural       C2N3O2Ti2
_chemical_formula_sum              "C2 N3 O2 Ti2"
_cell_length_a       3.1751405828212316
_cell_length_b       3.175140582824935
_cell_length_c       27.667840727419854
_cell_angle_alpha    90.0
_cell_angle_beta     90.0
_cell_angle_gamma    119.99999999996142

_space_group_name_H-M_alt    "P 1"
_space_group_IT_number       1

loop_
  _space_group_symop_operation_xyz
  'x, y, z'

loop_
  _atom_site_type_symbol
  _atom_site_label
  _atom_site_symmetry_multiplicity
  _atom_site_fract_x
  _atom_site_fract_y
  _atom_site_fract_z
  _atom_site_occupancy
  C   C1        1.0  0.33333298543221446  0.6666669831836741  0.631219120264162  1.0000
  C   C2        1.0  0.6666669847440474  0.33333298598514444  0.3682081627151355  1.0000
  N   N1        1.0  0.0  0.0  0.500002729868144  1.0000
  N   N2        1.0  0.33333298543221446  0.6666669831836741  0.5861397193144873  1.0000
  N   N3        1.0  0.6666669847440474  0.33333298598514444  0.3252874009456281  1.0000
  O   O1        1.0  0.33333298543221446  0.6666669831836741  0.674712599054372  1.0000
  O   O2        1.0  0.6666669847440474  0.33333298598514444  0.4164929177342213  1.0000
  Ti  Ti1       1.0  0.33333298543221446  0.6666669831836741  0.4628411619630159  1.0000
  Ti  Ti2       1.0  0.6666669847440474  0.33333298598514444  0.5380179770866598  1.0000
