data_image0
_chemical_formula_structural       CClN2Zr2
_chemical_formula_sum              "C1 Cl1 N2 Zr2"
_cell_length_a       3.4194234295497954
_cell_length_b       3.419423429550239
_cell_length_c       24.79164121260494
_cell_angle_alpha    90.0
_cell_angle_beta     90.0
_cell_angle_gamma    119.99999999999572

_space_group_name_H-M_alt    "P 1"
_space_group_IT_number       1

loop_
  _space_group_symop_operation_xyz
  'x, y, z'

loop_
  _atom_site_type_symbol
  _atom_site_label
  _atom_site_symmetry_multiplicity
  _atom_site_fract_x
  _atom_site_fract_y
  _atom_site_fract_z
  _atom_site_occupancy
  C   C1        1.0  0.33333298543221457  0.6666669831836741  0.5883760248168936  1.0000
  Cl  Cl1       1.0  0.6666669847440476  0.3333329859851446  0.3630255828090996  1.0000
  N   N1        1.0  0.0  0.0  0.4817275134776003  1.0000
  N   N2        1.0  0.33333298543221457  0.6666669831836741  0.6369744171909004  1.0000
  Zr  Zr1       1.0  0.33333298543221457  0.6666669831836741  0.435502244877054  1.0000
  Zr  Zr2       1.0  0.6666669847440476  0.3333329859851446  0.5285944206071134  1.0000
