data_image0
_chemical_formula_structural       C3Hf2N2O2
_chemical_formula_sum              "C3 Hf2 N2 O2"
_cell_length_a       3.3345034431564438
_cell_length_b       3.3345034431475735
_cell_length_c       28.165662119066827
_cell_angle_alpha    90.0
_cell_angle_beta     90.0
_cell_angle_gamma    120.00000000008801

_space_group_name_H-M_alt    "P 1"
_space_group_IT_number       1

loop_
  _space_group_symop_operation_xyz
  'x, y, z'

loop_
  _atom_site_type_symbol
  _atom_site_label
  _atom_site_symmetry_multiplicity
  _atom_site_fract_x
  _atom_site_fract_y
  _atom_site_fract_z
  _atom_site_occupancy
  C   C1        1.0  0.0  0.0  0.49968379148142544  1.0000
  C   C2        1.0  0.3333329854322145  0.6666669831836742  0.6377085334656685  1.0000
  C   C3        1.0  0.6666669847440473  0.3333329859851446  0.3616992478756315  1.0000
  Hf  Hf1       1.0  0.3333329854322145  0.6666669831836742  0.45823466510283495  1.0000
  Hf  Hf2       1.0  0.6666669847440473  0.3333329859851446  0.5425623925933114  1.0000
  N   N1        1.0  0.3333329854322145  0.6666669831836742  0.5933222504483914  1.0000
  N   N2        1.0  0.6666669847440473  0.3333329859851446  0.3195380233545947  1.0000
  O   O1        1.0  0.3333329854322145  0.6666669831836742  0.6804619766454052  1.0000
  O   O2        1.0  0.6666669847440473  0.3333329859851446  0.409259480988004  1.0000
