data_image0
_chemical_formula_structural       C3N2OSTi2
_chemical_formula_sum              "C3 N2 O1 S1 Ti2"
_cell_length_a       3.2010404015554563
_cell_length_b       3.2010404015473615
_cell_length_c       28.11085150089896
_cell_angle_alpha    90.0
_cell_angle_beta     90.0
_cell_angle_gamma    120.00000000008366

_space_group_name_H-M_alt    "P 1"
_space_group_IT_number       1

loop_
  _space_group_symop_operation_xyz
  'x, y, z'

loop_
  _atom_site_type_symbol
  _atom_site_label
  _atom_site_symmetry_multiplicity
  _atom_site_fract_x
  _atom_site_fract_y
  _atom_site_fract_z
  _atom_site_occupancy
  C   C1        1.0  0.0  0.0  0.5058841690619286  1.0000
  C   C2        1.0  0.3333329854322144  0.6666669831836741  0.6369812357102936  1.0000
  C   C3        1.0  0.6666669847440472  0.3333329859851445  0.3753143108310663  1.0000
  N   N1        1.0  0.3333329854322144  0.6666669831836741  0.5926433573945016  1.0000
  N   N2        1.0  0.6666669847440472  0.3333329859851445  0.4198908538434454  1.0000
  O   O1        1.0  0.3333329854322144  0.6666669831836741  0.6798389404991099  1.0000
  S   S1        1.0  0.6666669847440472  0.3333329859851445  0.3201610595008902  1.0000
  Ti  Ti1       1.0  0.3333329854322144  0.6666669831836741  0.4653332137525341  1.0000
  Ti  Ti2       1.0  0.6666669847440472  0.3333329859851445  0.5450496717247502  1.0000
