data_image0
_chemical_formula_structural       CClNOSc2
_chemical_formula_sum              "C1 Cl1 N1 O1 Sc2"
_cell_length_a       3.4176627100924435
_cell_length_b       3.4176627100897
_cell_length_c       24.700469363552426
_cell_angle_alpha    90.0
_cell_angle_beta     90.0
_cell_angle_gamma    120.00000000002656

_space_group_name_H-M_alt    "P 1"
_space_group_IT_number       1

loop_
  _space_group_symop_operation_xyz
  'x, y, z'

loop_
  _atom_site_type_symbol
  _atom_site_label
  _atom_site_symmetry_multiplicity
  _atom_site_fract_x
  _atom_site_fract_y
  _atom_site_fract_z
  _atom_site_occupancy
  C   C1        1.0  0.0  0.0  0.482264897091604  1.0000
  Cl  Cl1       1.0  0.6666669847440473  0.3333329859851446  0.3643655457527556  1.0000
  N   N1        1.0  0.33333298543221446  0.6666669831836742  0.5834479081074067  1.0000
  O   O1        1.0  0.33333298543221446  0.6666669831836742  0.6356344542472445  1.0000
  Sc  Sc1       1.0  0.33333298543221446  0.6666669831836742  0.4325452762001718  1.0000
  Sc  Sc2       1.0  0.6666669847440473  0.3333329859851446  0.5335545561222585  1.0000
