data_image0
_chemical_formula_structural       C2ClHf2N
_chemical_formula_sum              "C2 Cl1 Hf2 N1"
_cell_length_a       3.367963687255711
_cell_length_b       3.3679636872499126
_cell_length_c       24.854848066651286
_cell_angle_alpha    90.0
_cell_angle_beta     90.0
_cell_angle_gamma    120.00000000005696

_space_group_name_H-M_alt    "P 1"
_space_group_IT_number       1

loop_
  _space_group_symop_operation_xyz
  'x, y, z'

loop_
  _atom_site_type_symbol
  _atom_site_label
  _atom_site_symmetry_multiplicity
  _atom_site_fract_x
  _atom_site_fract_y
  _atom_site_fract_z
  _atom_site_occupancy
  C   C1        1.0  0.0  0.0  0.48127440509327213  1.0000
  C   C2        1.0  0.3333329854322145  0.6666669831836742  0.5893421860154557  1.0000
  Cl  Cl1       1.0  0.6666669847440476  0.33333298598514477  0.3621023945053057  1.0000
  Hf  Hf1       1.0  0.3333329854322145  0.6666669831836742  0.4340417811523876  1.0000
  Hf  Hf2       1.0  0.6666669847440476  0.33333298598514477  0.5307945260769162  1.0000
  N   N1        1.0  0.3333329854322145  0.6666669831836742  0.6378976054946943  1.0000
