data_image0
_chemical_formula_structural       CNO2PZr2
_chemical_formula_sum              "C1 N1 O2 P1 Zr2"
_cell_length_a       3.387212407555127
_cell_length_b       3.3872124075520307
_cell_length_c       26.4683948048624
_cell_angle_alpha    90.0
_cell_angle_beta     90.0
_cell_angle_gamma    120.00000000003024

_space_group_name_H-M_alt    "P 1"
_space_group_IT_number       1

loop_
  _space_group_symop_operation_xyz
  'x, y, z'

loop_
  _atom_site_type_symbol
  _atom_site_label
  _atom_site_symmetry_multiplicity
  _atom_site_fract_x
  _atom_site_fract_y
  _atom_site_fract_z
  _atom_site_occupancy
  C   C1        1.0  0.0  0.0  0.5157049211836862  1.0000
  N   N1        1.0  0.3333329854322144  0.6666669831836741  0.610110348078992  1.0000
  O   O1        1.0  0.3333329854322144  0.6666669831836741  0.6599718242699535  1.0000
  O   O2        1.0  0.6666669847440474  0.3333329859851446  0.34002817573004634  1.0000
  P   P1        1.0  0.6666669847440474  0.3333329859851446  0.3964346195922355  1.0000
  Zr  Zr1       1.0  0.3333329854322144  0.6666669831836741  0.47135446982603735  1.0000
  Zr  Zr2       1.0  0.6666669847440474  0.3333329859851446  0.5705867787920085  1.0000
