data_image0
_chemical_formula_structural       BrCOY2
_chemical_formula_sum              "Br1 C1 O1 Y2"
_cell_length_a       3.752287144876778
_cell_length_b       3.7522871448982738
_cell_length_c       23.325416442211925
_cell_angle_alpha    90.0
_cell_angle_beta     90.0
_cell_angle_gamma    119.99999999981051

_space_group_name_H-M_alt    "P 1"
_space_group_IT_number       1

loop_
  _space_group_symop_operation_xyz
  'x, y, z'

loop_
  _atom_site_type_symbol
  _atom_site_label
  _atom_site_symmetry_multiplicity
  _atom_site_fract_x
  _atom_site_fract_y
  _atom_site_fract_z
  _atom_site_occupancy
  Br  Br1       1.0  0.6666669847440474  0.3333329859851447  0.38584520119060906  1.0000
  C   C1        1.0  0.0  0.0  0.5177029833308202  1.0000
  O   O1        1.0  0.3333329854322145  0.6666669831836742  0.614154798809391  1.0000
  Y   Y1        1.0  0.3333329854322145  0.6666669831836742  0.47060735331498516  1.0000
  Y   Y2        1.0  0.6666669847440474  0.3333329859851447  0.5889844995715287  1.0000
