data_image0
_chemical_formula_structural       CHf2N2OS
_chemical_formula_sum              "C1 Hf2 N2 O1 S1"
_cell_length_a       3.261530596939313
_cell_length_b       3.2615305969381665
_cell_length_c       25.665529850443516
_cell_angle_alpha    90.0
_cell_angle_beta     90.0
_cell_angle_gamma    120.00000000001162

_space_group_name_H-M_alt    "P 1"
_space_group_IT_number       1

loop_
  _space_group_symop_operation_xyz
  'x, y, z'

loop_
  _atom_site_type_symbol
  _atom_site_label
  _atom_site_symmetry_multiplicity
  _atom_site_fract_x
  _atom_site_fract_y
  _atom_site_fract_z
  _atom_site_occupancy
  C   C1        1.0  0.33333298543221435  0.6666669831836742  0.58906400758835  1.0000
  Hf  Hf1       1.0  0.33333298543221435  0.6666669831836742  0.38795556612550663  1.0000
  Hf  Hf2       1.0  0.6666669847440474  0.3333329859851447  0.4884974266525703  1.0000
  N   N1        1.0  0.0  0.0  0.43758487773847426  1.0000
  N   N2        1.0  0.33333298543221435  0.6666669831836742  0.5395205232619668  1.0000
  O   O1        1.0  0.6666669847440474  0.3333329859851447  0.3506648821374118  1.0000
  S   S1        1.0  0.33333298543221435  0.6666669831836742  0.6493351178625881  1.0000
