data_image0
_chemical_formula_structural       H2NO2Ti2
_chemical_formula_sum              "H2 N1 O2 Ti2"
_cell_length_a       3.1106520706551026
_cell_length_b       3.1106520706541025
_cell_length_c       24.622766963316206
_cell_angle_alpha    90.0
_cell_angle_beta     90.0
_cell_angle_gamma    120.00000000001066

_space_group_name_H-M_alt    "P 1"
_space_group_IT_number       1

loop_
  _space_group_symop_operation_xyz
  'x, y, z'

loop_
  _atom_site_type_symbol
  _atom_site_label
  _atom_site_symmetry_multiplicity
  _atom_site_fract_x
  _atom_site_fract_y
  _atom_site_fract_z
  _atom_site_occupancy
  H   H1        1.0  0.3333329854322145  0.6666669831836741  0.6344846209441655  1.0000
  H   H2        1.0  0.6666669847440475  0.3333329859851446  0.3655153790558344  1.0000
  N   N1        1.0  0.0  0.0  0.5000000392088161  1.0000
  O   O1        1.0  0.3333329854322145  0.6666669831836741  0.59433454242645  1.0000
  O   O2        1.0  0.6666669847440475  0.3333329859851446  0.4056654575735604  1.0000
  Ti  Ti1       1.0  0.3333329854322145  0.6666669831836741  0.45608789003336125  1.0000
  Ti  Ti2       1.0  0.6666669847440475  0.3333329859851446  0.5439121093814323  1.0000
