data_image0
_chemical_formula_structural       BrC2Hf2N
_chemical_formula_sum              "Br1 C2 Hf2 N1"
_cell_length_a       3.4020712273266303
_cell_length_b       3.4020712273220073
_cell_length_c       24.994348825716074
_cell_angle_alpha    90.0
_cell_angle_beta     90.0
_cell_angle_gamma    120.00000000004495

_space_group_name_H-M_alt    "P 1"
_space_group_IT_number       1

loop_
  _space_group_symop_operation_xyz
  'x, y, z'

loop_
  _atom_site_type_symbol
  _atom_site_label
  _atom_site_symmetry_multiplicity
  _atom_site_fract_x
  _atom_site_fract_y
  _atom_site_fract_z
  _atom_site_occupancy
  Br  Br1       1.0  0.6666669847440474  0.3333329859851446  0.36008139530885164  1.0000
  C   C1        1.0  0.0  0.0  0.4850906981154576  1.0000
  C   C2        1.0  0.3333329854322146  0.6666669831836742  0.5916329412251411  1.0000
  Hf  Hf1       1.0  0.3333329854322146  0.6666669831836742  0.4383542942147054  1.0000
  Hf  Hf2       1.0  0.6666669847440474  0.3333329859851446  0.5338818451772313  1.0000
  N   N1        1.0  0.3333329854322146  0.6666669831836742  0.6399186046911486  1.0000
