data_image0
_chemical_formula_structural       C2N3SZr2
_chemical_formula_sum              "C2 N3 S1 Zr2"
_cell_length_a       3.409173093467133
_cell_length_b       3.4091730934670337
_cell_length_c       27.219825291405208
_cell_angle_alpha    90.0
_cell_angle_beta     90.0
_cell_angle_gamma    120.00000000000095

_space_group_name_H-M_alt    "P 1"
_space_group_IT_number       1

loop_
  _space_group_symop_operation_xyz
  'x, y, z'

loop_
  _atom_site_type_symbol
  _atom_site_label
  _atom_site_symmetry_multiplicity
  _atom_site_fract_x
  _atom_site_fract_y
  _atom_site_fract_z
  _atom_site_occupancy
  C   C1        1.0  0.3333329854322146  0.6666669831836742  0.625111624275007  1.0000
  C   C2        1.0  0.6666669847440474  0.3333329859851446  0.3876938822692698  1.0000
  N   N1        1.0  0.0  0.0  0.5273915676754628  1.0000
  N   N2        1.0  0.3333329854322146  0.6666669831836742  0.669358641958595  1.0000
  N   N3        1.0  0.6666669847440474  0.3333329859851446  0.4337577056044468  1.0000
  S   S1        1.0  0.6666669847440474  0.3333329859851446  0.330641358041405  1.0000
  Zr  Zr1       1.0  0.3333329854322146  0.6666669831836742  0.48479899945969007  1.0000
  Zr  Zr2       1.0  0.6666669847440474  0.3333329859851446  0.5702867448084277  1.0000
