data_image0
_chemical_formula_structural       CHf2N2O
_chemical_formula_sum              "C1 Hf2 N2 O1"
_cell_length_a       3.2415137094138844
_cell_length_b       3.2415137094137396
_cell_length_c       24.217616946027373
_cell_angle_alpha    90.0
_cell_angle_beta     90.0
_cell_angle_gamma    120.00000000000149

_space_group_name_H-M_alt    "P 1"
_space_group_IT_number       1

loop_
  _space_group_symop_operation_xyz
  'x, y, z'

loop_
  _atom_site_type_symbol
  _atom_site_label
  _atom_site_symmetry_multiplicity
  _atom_site_fract_x
  _atom_site_fract_y
  _atom_site_fract_z
  _atom_site_occupancy
  C   C1        1.0  0.3333329854322145  0.6666669831836742  0.5783697644759018  1.0000
  Hf  Hf1       1.0  0.3333329854322145  0.6666669831836742  0.4114337055146615  1.0000
  Hf  Hf2       1.0  0.6666669847440474  0.3333329859851446  0.5185116611379874  1.0000
  N   N1        1.0  0.0  0.0  0.4640750986609369  1.0000
  N   N2        1.0  0.3333329854322145  0.6666669831836742  0.6283697103617643  1.0000
  O   O1        1.0  0.6666669847440474  0.3333329859851446  0.3716302896382357  1.0000
