data_image0
_chemical_formula_structural       NO2PZr2
_chemical_formula_sum              "N1 O2 P1 Zr2"
_cell_length_a       3.2678462716434087
_cell_length_b       3.2678462716421346
_cell_length_c       25.12306596643221
_cell_angle_alpha    90.0
_cell_angle_beta     90.0
_cell_angle_gamma    120.00000000001289

_space_group_name_H-M_alt    "P 1"
_space_group_IT_number       1

loop_
  _space_group_symop_operation_xyz
  'x, y, z'

loop_
  _atom_site_type_symbol
  _atom_site_label
  _atom_site_symmetry_multiplicity
  _atom_site_fract_x
  _atom_site_fract_y
  _atom_site_fract_z
  _atom_site_occupancy
  N   N1        1.0  0.0  0.0  0.44936133829098707  1.0000
  O   O1        1.0  0.3333329854322145  0.6666669831836742  0.6417634689959733  1.0000
  O   O2        1.0  0.6666669847440475  0.3333329859851446  0.3582365310040266  1.0000
  P   P1        1.0  0.3333329854322145  0.6666669831836742  0.5824329872429388  1.0000
  Zr  Zr1       1.0  0.3333329854322145  0.6666669831836742  0.3972951146411259  1.0000
  Zr  Zr2       1.0  0.6666669847440475  0.3333329859851446  0.5038658283270809  1.0000
