data_image0
_chemical_formula_structural       ClNO2PY2
_chemical_formula_sum              "Cl1 N1 O2 P1 Y2"
_cell_length_a       3.7145913192650464
_cell_length_b       3.71459131929171
_cell_length_c       27.057995021792063
_cell_angle_alpha    90.0
_cell_angle_beta     90.0
_cell_angle_gamma    119.99999999976257

_space_group_name_H-M_alt    "P 1"
_space_group_IT_number       1

loop_
  _space_group_symop_operation_xyz
  'x, y, z'

loop_
  _atom_site_type_symbol
  _atom_site_label
  _atom_site_symmetry_multiplicity
  _atom_site_fract_x
  _atom_site_fract_y
  _atom_site_fract_z
  _atom_site_occupancy
  Cl  Cl1       1.0  0.3333329854322145  0.6666669831836742  0.6673811199702142  1.0000
  N   N1        1.0  0.0  0.0  0.49191306035149324  1.0000
  O   O1        1.0  0.3333329854322145  0.6666669831836742  0.5671440462729785  1.0000
  O   O2        1.0  0.6666669847440474  0.3333329859851446  0.3326188800297859  1.0000
  P   P1        1.0  0.6666669847440474  0.3333329859851446  0.38770214643953704  1.0000
  Y   Y1        1.0  0.3333329854322145  0.6666669831836742  0.47703478562075097  1.0000
  Y   Y2        1.0  0.6666669847440474  0.3333329859851446  0.5945843547736104  1.0000
