data_image0
_chemical_formula_structural       C2HNZr2
_chemical_formula_sum              "C2 H1 N1 Zr2"
_cell_length_a       3.362232971402895
_cell_length_b       3.362232971404506
_cell_length_c       24.209605632657095
_cell_angle_alpha    90.0
_cell_angle_beta     90.0
_cell_angle_gamma    119.99999999998417

_space_group_name_H-M_alt    "P 1"
_space_group_IT_number       1

loop_
  _space_group_symop_operation_xyz
  'x, y, z'

loop_
  _atom_site_type_symbol
  _atom_site_label
  _atom_site_symmetry_multiplicity
  _atom_site_fract_x
  _atom_site_fract_y
  _atom_site_fract_z
  _atom_site_occupancy
  C   C1        1.0  0.0  0.0  0.4648173401411224  1.0000
  C   C2        1.0  0.3333329854322145  0.6666669831836742  0.5785318149799901  1.0000
  H   H1        1.0  0.6666669847440473  0.3333329859851446  0.37175326754846505  1.0000
  N   N1        1.0  0.3333329854322145  0.6666669831836742  0.6282467324515351  1.0000
  Zr  Zr1       1.0  0.3333329854322145  0.6666669831836742  0.41305694944702265  1.0000
  Zr  Zr2       1.0  0.6666669847440473  0.3333329859851446  0.5164366316807937  1.0000
