data_image0
_chemical_formula_structural       C2Hf2NO2
_chemical_formula_sum              "C2 Hf2 N1 O2"
_cell_length_a       3.2862084481293277
_cell_length_b       3.28620844812821
_cell_length_c       25.45257692855504
_cell_angle_alpha    90.0
_cell_angle_beta     90.0
_cell_angle_gamma    120.00000000001127

_space_group_name_H-M_alt    "P 1"
_space_group_IT_number       1

loop_
  _space_group_symop_operation_xyz
  'x, y, z'

loop_
  _atom_site_type_symbol
  _atom_site_label
  _atom_site_symmetry_multiplicity
  _atom_site_fract_x
  _atom_site_fract_y
  _atom_site_fract_z
  _atom_site_occupancy
  C   C1        1.0  0.0  0.0  0.5541638439517955  1.0000
  C   C2        1.0  0.6666669847440474  0.3333329859851446  0.40024107816194326  1.0000
  Hf  Hf1       1.0  0.3333329854322146  0.6666669831836742  0.5070682648218355  1.0000
  Hf  Hf2       1.0  0.6666669847440474  0.3333329859851446  0.6092594317209415  1.0000
  N   N1        1.0  0.6666669847440474  0.3333329859851446  0.3535987741148117  1.0000
  O   O1        1.0  0.3333329854322146  0.6666669831836742  0.6464012258851883  1.0000
  O   O2        1.0  0.6666669847440474  0.3333329859851446  0.452898060156079  1.0000
