data_image0
_chemical_formula_structural       FN2OY2
_chemical_formula_sum              "F1 N2 O1 Y2"
_cell_length_a       3.5847046202674573
_cell_length_b       3.5847046202684867
_cell_length_c       24.327565156164955
_cell_angle_alpha    90.0
_cell_angle_beta     90.0
_cell_angle_gamma    119.99999999999051

_space_group_name_H-M_alt    "P 1"
_space_group_IT_number       1

loop_
  _space_group_symop_operation_xyz
  'x, y, z'

loop_
  _atom_site_type_symbol
  _atom_site_label
  _atom_site_symmetry_multiplicity
  _atom_site_fract_x
  _atom_site_fract_y
  _atom_site_fract_z
  _atom_site_occupancy
  F   F1        1.0  0.6666669847440474  0.3333329859851446  0.3699507099139048  1.0000
  N   N1        1.0  0.0  0.0  0.4655651109092246  1.0000
  N   N2        1.0  0.3333329854322145  0.6666669831836742  0.5750595635027225  1.0000
  O   O1        1.0  0.3333329854322145  0.6666669831836742  0.6300492900860952  1.0000
  Y   Y1        1.0  0.3333329854322145  0.6666669831836742  0.4188147009583175  1.0000
  Y   Y2        1.0  0.6666669847440474  0.3333329859851446  0.535388019753576  1.0000
