data_image0
_chemical_formula_structural       CClO2PSc2
_chemical_formula_sum              "C1 Cl1 O2 P1 Sc2"
_cell_length_a       3.3576477537006792
_cell_length_b       3.357647753694811
_cell_length_c       28.181034750570884
_cell_angle_alpha    90.0
_cell_angle_beta     90.0
_cell_angle_gamma    120.00000000005782

_space_group_name_H-M_alt    "P 1"
_space_group_IT_number       1

loop_
  _space_group_symop_operation_xyz
  'x, y, z'

loop_
  _atom_site_type_symbol
  _atom_site_label
  _atom_site_symmetry_multiplicity
  _atom_site_fract_x
  _atom_site_fract_y
  _atom_site_fract_z
  _atom_site_occupancy
  C   C1        1.0  0.0  0.0  0.4819065130044471  1.0000
  Cl  Cl1       1.0  0.3333329854322145  0.6666669831836742  0.6806362832430176  1.0000
  O   O1        1.0  0.3333329854322145  0.6666669831836742  0.5623568060666166  1.0000
  O   O2        1.0  0.6666669847440474  0.3333329859851446  0.31936371675698244  1.0000
  P   P1        1.0  0.6666669847440474  0.3333329859851446  0.37226217587696614  1.0000
  Sc  Sc1       1.0  0.3333329854322145  0.6666669831836742  0.44943675949259254  1.0000
  Sc  Sc2       1.0  0.6666669847440474  0.3333329859851446  0.5419384853927002  1.0000
