data_image0
_chemical_formula_structural       BrCN2SZr2
_chemical_formula_sum              "Br1 C1 N2 S1 Zr2"
_cell_length_a       3.550442451240078
_cell_length_b       3.5504424512309862
_cell_length_c       26.68060374904221
_cell_angle_alpha    90.0
_cell_angle_beta     90.0
_cell_angle_gamma    120.00000000008473

_space_group_name_H-M_alt    "P 1"
_space_group_IT_number       1

loop_
  _space_group_symop_operation_xyz
  'x, y, z'

loop_
  _atom_site_type_symbol
  _atom_site_label
  _atom_site_symmetry_multiplicity
  _atom_site_fract_x
  _atom_site_fract_y
  _atom_site_fract_z
  _atom_site_occupancy
  Br  Br1       1.0  0.6666669847440474  0.3333329859851446  0.33732370094222797  1.0000
  C   C1        1.0  0.3333329854322145  0.6666669831836741  0.6180498908735361  1.0000
  N   N1        1.0  0.0  0.0  0.44933362753771067  1.0000
  N   N2        1.0  0.3333329854322145  0.6666669831836741  0.6626762990577721  1.0000
  S   S1        1.0  0.3333329854322145  0.6666669831836741  0.554996018248235  1.0000
  Zr  Zr1       1.0  0.3333329854322145  0.6666669831836741  0.4099109906435743  1.0000
  Zr  Zr2       1.0  0.6666669847440474  0.3333329859851446  0.493442949893435  1.0000
