data_image0
_chemical_formula_structural       N2O2Y2
_chemical_formula_sum              "N2 O2 Y2"
_cell_length_a       3.5813641051448766
_cell_length_b       3.581364105148559
_cell_length_c       24.251149081263254
_cell_angle_alpha    90.0
_cell_angle_beta     90.0
_cell_angle_gamma    119.999999999966

_space_group_name_H-M_alt    "P 1"
_space_group_IT_number       1

loop_
  _space_group_symop_operation_xyz
  'x, y, z'

loop_
  _atom_site_type_symbol
  _atom_site_label
  _atom_site_symmetry_multiplicity
  _atom_site_fract_x
  _atom_site_fract_y
  _atom_site_fract_z
  _atom_site_occupancy
  N   N1        1.0  0.0  0.0  0.4713490385116643  1.0000
  N   N2        1.0  0.3333329854322146  0.6666669831836742  0.5758185851537384  1.0000
  O   O1        1.0  0.3333329854322146  0.6666669831836742  0.6288835646574159  1.0000
  O   O2        1.0  0.6666669847440474  0.3333329859851446  0.37111643534258404  1.0000
  Y   Y1        1.0  0.3333329854322146  0.6666669831836742  0.3998470873642146  1.0000
  Y   Y2        1.0  0.6666669847440474  0.3333329859851446  0.5169506997424045  1.0000
