data_image0
_chemical_formula_structural       BrClNZr2
_chemical_formula_sum              "Br1 Cl1 N1 Zr2"
_cell_length_a       3.4866644656663324
_cell_length_b       3.4866644656614665
_cell_length_c       23.972806681954317
_cell_angle_alpha    90.0
_cell_angle_beta     90.0
_cell_angle_gamma    120.00000000004617

_space_group_name_H-M_alt    "P 1"
_space_group_IT_number       1

loop_
  _space_group_symop_operation_xyz
  'x, y, z'

loop_
  _atom_site_type_symbol
  _atom_site_label
  _atom_site_symmetry_multiplicity
  _atom_site_fract_x
  _atom_site_fract_y
  _atom_site_fract_z
  _atom_site_occupancy
  Br  Br1       1.0  0.6666669847440474  0.3333329859851446  0.3754253775706124  1.0000
  Cl  Cl1       1.0  0.3333329854322145  0.6666669831836742  0.6245746224293875  1.0000
  N   N1        1.0  0.0  0.0  0.5040076406551526  1.0000
  Zr  Zr1       1.0  0.3333329854322145  0.6666669831836742  0.4570168393557541  1.0000
  Zr  Zr2       1.0  0.6666669847440474  0.3333329859851446  0.5506048079650726  1.0000
