data_image0
_chemical_formula_structural       CCl2O2Y2
_chemical_formula_sum              "C1 Cl2 O2 Y2"
_cell_length_a       3.688790396698441
_cell_length_b       3.6887903967044693
_cell_length_c       26.489949015505363
_cell_angle_alpha    90.0
_cell_angle_beta     90.0
_cell_angle_gamma    119.99999999994594

_space_group_name_H-M_alt    "P 1"
_space_group_IT_number       1

loop_
  _space_group_symop_operation_xyz
  'x, y, z'

loop_
  _atom_site_type_symbol
  _atom_site_label
  _atom_site_symmetry_multiplicity
  _atom_site_fract_x
  _atom_site_fract_y
  _atom_site_fract_z
  _atom_site_occupancy
  C   C1        1.0  0.0  0.0  0.5000000259163822  1.0000
  Cl  Cl1       1.0  0.3333329854322145  0.6666669831836742  0.660248496713526  1.0000
  Cl  Cl2       1.0  0.6666669847440474  0.3333329859851446  0.339751503286474  1.0000
  O   O1        1.0  0.3333329854322145  0.6666669831836742  0.5935713455877987  1.0000
  O   O2        1.0  0.6666669847440474  0.3333329859851446  0.4064286544122079  1.0000
  Y   Y1        1.0  0.3333329854322145  0.6666669831836742  0.4480089357744322  1.0000
  Y   Y2        1.0  0.6666669847440474  0.3333329859851446  0.5519910638387557  1.0000
