data_image0
_chemical_formula_structural       CN2O2Sc2
_chemical_formula_sum              "C1 N2 O2 Sc2"
_cell_length_a       3.339538849289227
_cell_length_b       3.3395388492901885
_cell_length_c       25.674418911817455
_cell_angle_alpha    90.0
_cell_angle_beta     90.0
_cell_angle_gamma    119.99999999999048

_space_group_name_H-M_alt    "P 1"
_space_group_IT_number       1

loop_
  _space_group_symop_operation_xyz
  'x, y, z'

loop_
  _atom_site_type_symbol
  _atom_site_label
  _atom_site_symmetry_multiplicity
  _atom_site_fract_x
  _atom_site_fract_y
  _atom_site_fract_z
  _atom_site_occupancy
  C   C1        1.0  0.0  0.0  0.5000000326249442  1.0000
  N   N1        1.0  0.3333329854322145  0.6666669831836741  0.5993691915764687  1.0000
  N   N2        1.0  0.6666669847440474  0.3333329859851446  0.4006308084235314  1.0000
  O   O1        1.0  0.3333329854322145  0.6666669831836741  0.6494565259329992  1.0000
  O   O2        1.0  0.6666669847440474  0.3333329859851446  0.3505434740670009  1.0000
  Sc  Sc1       1.0  0.3333329854322145  0.6666669831836741  0.44982727258416727  1.0000
  Sc  Sc2       1.0  0.6666669847440474  0.3333329859851446  0.5501727269288845  1.0000
