data_image0
_chemical_formula_structural       ClNOSc2
_chemical_formula_sum              "Cl1 N1 O1 Sc2"
_cell_length_a       3.324464543519103
_cell_length_b       3.324464543513613
_cell_length_c       23.02235087789334
_cell_angle_alpha    90.0
_cell_angle_beta     90.0
_cell_angle_gamma    120.00000000005463

_space_group_name_H-M_alt    "P 1"
_space_group_IT_number       1

loop_
  _space_group_symop_operation_xyz
  'x, y, z'

loop_
  _atom_site_type_symbol
  _atom_site_label
  _atom_site_symmetry_multiplicity
  _atom_site_fract_x
  _atom_site_fract_y
  _atom_site_fract_z
  _atom_site_occupancy
  Cl  Cl1       1.0  0.6666669847440474  0.3333329859851446  0.3909244563135398  1.0000
  N   N1        1.0  0.0  0.0  0.5100810885019876  1.0000
  O   O1        1.0  0.3333329854322145  0.6666669831836742  0.6090755436864601  1.0000
  Sc  Sc1       1.0  0.3333329854322145  0.6666669831836742  0.46656526567126777  1.0000
  Sc  Sc2       1.0  0.6666669847440474  0.3333329859851446  0.5795051644750422  1.0000
