data_image0
_chemical_formula_structural       C2ClHf2NS
_chemical_formula_sum              "C2 Cl1 Hf2 N1 S1"
_cell_length_a       3.471926811746492
_cell_length_b       3.4719268117377164
_cell_length_c       26.608404962011903
_cell_angle_alpha    90.0
_cell_angle_beta     90.0
_cell_angle_gamma    120.00000000008363

_space_group_name_H-M_alt    "P 1"
_space_group_IT_number       1

loop_
  _space_group_symop_operation_xyz
  'x, y, z'

loop_
  _atom_site_type_symbol
  _atom_site_label
  _atom_site_symmetry_multiplicity
  _atom_site_fract_x
  _atom_site_fract_y
  _atom_site_fract_z
  _atom_site_occupancy
  C   C1        1.0  0.0  0.0  0.44612331107034225  1.0000
  C   C2        1.0  0.3333329854322145  0.6666669831836742  0.6170321957787496  1.0000
  Cl  Cl1       1.0  0.6666669847440474  0.3333329859851446  0.3382389892535481  1.0000
  Hf  Hf1       1.0  0.3333329854322145  0.6666669831836742  0.40461822099420997  1.0000
  Hf  Hf2       1.0  0.6666669847440474  0.3333329859851446  0.4915556847345151  1.0000
  N   N1        1.0  0.3333329854322145  0.6666669831836742  0.6617610107464521  1.0000
  S   S1        1.0  0.3333329854322145  0.6666669831836742  0.5535833242400297  1.0000
