data_image0
_chemical_formula_structural       BrCN2OY2
_chemical_formula_sum              "Br1 C1 N2 O1 Y2"
_cell_length_a       3.6182661148036934
_cell_length_b       3.6182661148036894
_cell_length_c       26.39626151547237
_cell_angle_alpha    90.0
_cell_angle_beta     90.0
_cell_angle_gamma    120.00000000000004

_space_group_name_H-M_alt    "P 1"
_space_group_IT_number       1

loop_
  _space_group_symop_operation_xyz
  'x, y, z'

loop_
  _atom_site_type_symbol
  _atom_site_label
  _atom_site_symmetry_multiplicity
  _atom_site_fract_x
  _atom_site_fract_y
  _atom_site_fract_z
  _atom_site_occupancy
  Br  Br1       1.0  0.33333298543221446  0.6666669831836743  0.6590426263687159  1.0000
  C   C1        1.0  0.6666669847440472  0.3333329859851447  0.3860002017778567  1.0000
  N   N1        1.0  0.0  0.0  0.5335338416045814  1.0000
  N   N2        1.0  0.6666669847440472  0.3333329859851447  0.34095737363128426  1.0000
  O   O1        1.0  0.6666669847440472  0.3333329859851447  0.4365247966141004  1.0000
  Y   Y1        1.0  0.33333298543221446  0.6666669831836743  0.4857043204667049  1.0000
  Y   Y2        1.0  0.6666669847440472  0.3333329859851447  0.5845902004999414  1.0000
