data_image0
_chemical_formula_structural       C3N2O2Zr2
_chemical_formula_sum              "C3 N2 O2 Zr2"
_cell_length_a       3.3917648108246854
_cell_length_b       3.3917648108275067
_cell_length_c       28.24690083569582
_cell_angle_alpha    90.0
_cell_angle_beta     90.0
_cell_angle_gamma    119.99999999997249

_space_group_name_H-M_alt    "P 1"
_space_group_IT_number       1

loop_
  _space_group_symop_operation_xyz
  'x, y, z'

loop_
  _atom_site_type_symbol
  _atom_site_label
  _atom_site_symmetry_multiplicity
  _atom_site_fract_x
  _atom_site_fract_y
  _atom_site_fract_z
  _atom_site_occupancy
  C   C1        1.0  0.0  0.0  0.5000000287475697  1.0000
  C   C2        1.0  0.33333298543221446  0.6666669831836742  0.6393090350052743  1.0000
  C   C3        1.0  0.6666669847440474  0.3333329859851446  0.3606909645656572  1.0000
  N   N1        1.0  0.33333298543221446  0.6666669831836742  0.6813809751253619  1.0000
  N   N2        1.0  0.6666669847440474  0.3333329859851446  0.3186190248746381  1.0000
  O   O1        1.0  0.33333298543221446  0.6666669831836742  0.5919760704723716  1.0000
  O   O2        1.0  0.6666669847440474  0.3333329859851446  0.4080239295276282  1.0000
  Zr  Zr1       1.0  0.33333298543221446  0.6666669831836742  0.45716024950568107  1.0000
  Zr  Zr2       1.0  0.6666669847440474  0.3333329859851446  0.5428397500652431  1.0000
