data_image0
_chemical_formula_structural       Hf2NO2P2
_chemical_formula_sum              "Hf2 N1 O2 P2"
_cell_length_a       3.2159603769447185
_cell_length_b       3.215960376942054
_cell_length_c       27.45890951608847
_cell_angle_alpha    90.0
_cell_angle_beta     90.0
_cell_angle_gamma    120.00000000002743

_space_group_name_H-M_alt    "P 1"
_space_group_IT_number       1

loop_
  _space_group_symop_operation_xyz
  'x, y, z'

loop_
  _atom_site_type_symbol
  _atom_site_label
  _atom_site_symmetry_multiplicity
  _atom_site_fract_x
  _atom_site_fract_y
  _atom_site_fract_z
  _atom_site_occupancy
  Hf  Hf1       1.0  0.33333298543221457  0.6666669831836742  0.4531187278827467  1.0000
  Hf  Hf2       1.0  0.6666669847440475  0.3333329859851446  0.5468812716262872  1.0000
  N   N1        1.0  0.0  0.0  0.5000000328941552  1.0000
  O   O1        1.0  0.33333298543221457  0.6666669831836742  0.6722375302367048  1.0000
  O   O2        1.0  0.6666669847440475  0.3333329859851446  0.32776246976329493  1.0000
  P   P1        1.0  0.33333298543221457  0.6666669831836742  0.6178793976775103  1.0000
  P   P2        1.0  0.6666669847440475  0.3333329859851446  0.3821206023224896  1.0000
