data_image0
_chemical_formula_structural       BrC2NOY2
_chemical_formula_sum              "Br1 C2 N1 O1 Y2"
_cell_length_a       3.7178700280167813
_cell_length_b       3.7178700280384684
_cell_length_c       26.415180889787624
_cell_angle_alpha    90.0
_cell_angle_beta     90.0
_cell_angle_gamma    119.99999999980705

_space_group_name_H-M_alt    "P 1"
_space_group_IT_number       1

loop_
  _space_group_symop_operation_xyz
  'x, y, z'

loop_
  _atom_site_type_symbol
  _atom_site_label
  _atom_site_symmetry_multiplicity
  _atom_site_fract_x
  _atom_site_fract_y
  _atom_site_fract_z
  _atom_site_occupancy
  Br  Br1       1.0  0.3333329854322145  0.6666669831836742  0.65928683064671  1.0000
  C   C1        1.0  0.0  0.0  0.5342861425508316  1.0000
  C   C2        1.0  0.6666669847440474  0.3333329859851446  0.38575689205589525  1.0000
  N   N1        1.0  0.6666669847440474  0.3333329859851446  0.34071316935329  1.0000
  O   O1        1.0  0.6666669847440474  0.3333329859851446  0.4362115905653119  1.0000
  Y   Y1        1.0  0.3333329854322145  0.6666669831836742  0.4831525382803706  1.0000
  Y   Y2        1.0  0.6666669847440474  0.3333329859851446  0.5854207709916406  1.0000
