data_image0
_chemical_formula_structural       CN2O2Y2
_chemical_formula_sum              "C1 N2 O2 Y2"
_cell_length_a       3.6620163853021044
_cell_length_b       3.662016385317605
_cell_length_c       25.947385573822178
_cell_angle_alpha    90.0
_cell_angle_beta     90.0
_cell_angle_gamma    119.99999999986

_space_group_name_H-M_alt    "P 1"
_space_group_IT_number       1

loop_
  _space_group_symop_operation_xyz
  'x, y, z'

loop_
  _atom_site_type_symbol
  _atom_site_label
  _atom_site_symmetry_multiplicity
  _atom_site_fract_x
  _atom_site_fract_y
  _atom_site_fract_z
  _atom_site_occupancy
  C   C1        1.0  0.0  0.0  0.5000000268465961  1.0000
  N   N1        1.0  0.3333329854322146  0.6666669831836743  0.6032823616178901  1.0000
  N   N2        1.0  0.6666669847440476  0.3333329859851446  0.3967176383821097  1.0000
  O   O1        1.0  0.3333329854322146  0.6666669831836743  0.6531442455196746  1.0000
  O   O2        1.0  0.6666669847440476  0.3333329859851446  0.3468557544803254  1.0000
  Y   Y1        1.0  0.3333329854322146  0.6666669831836743  0.44640143301831076  1.0000
  Y   Y2        1.0  0.6666669847440476  0.3333329859851446  0.5535985665809864  1.0000
