data_image0
_chemical_formula_structural       CHNOY2
_chemical_formula_sum              "C1 H1 N1 O1 Y2"
_cell_length_a       3.6400270159551766
_cell_length_b       3.64002701596411
_cell_length_c       24.380956469464426
_cell_angle_alpha    90.0
_cell_angle_beta     90.0
_cell_angle_gamma    119.99999999991883

_space_group_name_H-M_alt    "P 1"
_space_group_IT_number       1

loop_
  _space_group_symop_operation_xyz
  'x, y, z'

loop_
  _atom_site_type_symbol
  _atom_site_label
  _atom_site_symmetry_multiplicity
  _atom_site_fract_x
  _atom_site_fract_y
  _atom_site_fract_z
  _atom_site_occupancy
  C   C1        1.0  0.0  0.0  0.467478568344342  1.0000
  H   H1        1.0  0.6666669847440476  0.3333329859851446  0.36914056309775706  1.0000
  N   N1        1.0  0.33333298543221457  0.6666669831836742  0.5777744242105977  1.0000
  O   O1        1.0  0.33333298543221457  0.6666669831836742  0.630859436902243  1.0000
  Y   Y1        1.0  0.33333298543221457  0.6666669831836742  0.41198624302304243  1.0000
  Y   Y2        1.0  0.6666669847440476  0.3333329859851446  0.5248976338317467  1.0000
