data_image0
_chemical_formula_structural       CClOY2
_chemical_formula_sum              "C1 Cl1 O1 Y2"
_cell_length_a       3.630262342523139
_cell_length_b       3.6302623425376517
_cell_length_c       23.566174341820652
_cell_angle_alpha    90.0
_cell_angle_beta     90.0
_cell_angle_gamma    119.99999999986775

_space_group_name_H-M_alt    "P 1"
_space_group_IT_number       1

loop_
  _space_group_symop_operation_xyz
  'x, y, z'

loop_
  _atom_site_type_symbol
  _atom_site_label
  _atom_site_symmetry_multiplicity
  _atom_site_fract_x
  _atom_site_fract_y
  _atom_site_fract_z
  _atom_site_occupancy
  C   C1        1.0  0.0  0.0  0.5115001128869174  1.0000
  Cl  Cl1       1.0  0.6666669847440474  0.3333329859851446  0.3819033106289362  1.0000
  O   O1        1.0  0.3333329854322145  0.6666669831836742  0.6180966893710638  1.0000
  Y   Y1        1.0  0.3333329854322145  0.6666669831836742  0.4584837756584477  1.0000
  Y   Y2        1.0  0.6666669847440474  0.3333329859851446  0.5893205335543799  1.0000
