data_image0
_chemical_formula_structural       C2Hf2NOPS
_chemical_formula_sum              "C2 Hf2 N1 O1 P1 S1"
_cell_length_a       3.336681213275029
_cell_length_b       3.336681213248932
_cell_length_c       28.06080748799222
_cell_angle_alpha    90.0
_cell_angle_beta     90.0
_cell_angle_gamma    120.00000000025874

_space_group_name_H-M_alt    "P 1"
_space_group_IT_number       1

loop_
  _space_group_symop_operation_xyz
  'x, y, z'

loop_
  _atom_site_type_symbol
  _atom_site_label
  _atom_site_symmetry_multiplicity
  _atom_site_fract_x
  _atom_site_fract_y
  _atom_site_fract_z
  _atom_site_occupancy
  C   C1        1.0  0.0  0.0  0.4875498676634099  1.0000
  C   C2        1.0  0.3333329854322145  0.6666669831836742  0.6240451910610428  1.0000
  Hf  Hf1       1.0  0.3333329854322145  0.6666669831836742  0.4433581604038059  1.0000
  Hf  Hf2       1.0  0.6666669847440476  0.3333329859851445  0.5313143725012341  1.0000
  N   N1        1.0  0.3333329854322145  0.6666669831836742  0.5790093814139827  1.0000
  O   O1        1.0  0.6666669847440476  0.3333329859851445  0.32073203894261704  1.0000
  P   P1        1.0  0.6666669847440476  0.3333329859851445  0.3740220978652127  1.0000
  S   S1        1.0  0.3333329854322145  0.6666669831836742  0.6792679610573832  1.0000
