data_image0
_chemical_formula_structural       F2NSc2
_chemical_formula_sum              "F2 N1 Sc2"
_cell_length_a       3.213938499642934
_cell_length_b       3.2139384996429765
_cell_length_c       22.831408190834743
_cell_angle_alpha    90.0
_cell_angle_beta     90.0
_cell_angle_gamma    119.99999999999956

_space_group_name_H-M_alt    "P 1"
_space_group_IT_number       1

loop_
  _space_group_symop_operation_xyz
  'x, y, z'

loop_
  _atom_site_type_symbol
  _atom_site_label
  _atom_site_symmetry_multiplicity
  _atom_site_fract_x
  _atom_site_fract_y
  _atom_site_fract_z
  _atom_site_occupancy
  F   F1        1.0  0.33333298543221457  0.6666669831836742  0.6058061804697229  1.0000
  F   F2        1.0  0.6666669847440475  0.3333329859851446  0.3941938195302771  1.0000
  N   N1        1.0  0.0  0.0  0.5000000396109792  1.0000
  Sc  Sc1       1.0  0.33333298543221457  0.6666669831836742  0.4463768901565431  1.0000
  Sc  Sc2       1.0  0.6666669847440475  0.3333329859851446  0.5536231092522376  1.0000
