data_image0
_chemical_formula_structural       ClHNOZr2
_chemical_formula_sum              "Cl1 H1 N1 O1 Zr2"
_cell_length_a       3.245943272015956
_cell_length_b       3.2459432720191512
_cell_length_c       26.11146651715061
_cell_angle_alpha    90.0
_cell_angle_beta     90.0
_cell_angle_gamma    119.99999999996744

_space_group_name_H-M_alt    "P 1"
_space_group_IT_number       1

loop_
  _space_group_symop_operation_xyz
  'x, y, z'

loop_
  _atom_site_type_symbol
  _atom_site_label
  _atom_site_symmetry_multiplicity
  _atom_site_fract_x
  _atom_site_fract_y
  _atom_site_fract_z
  _atom_site_occupancy
  Cl  Cl1       1.0  0.3333329854322146  0.6666669831836742  0.6553238404251023  1.0000
  H   H1        1.0  0.6666669847440476  0.3333329859851446  0.3446761595748976  1.0000
  N   N1        1.0  0.0  0.0  0.433681820807211  1.0000
  O   O1        1.0  0.3333329854322146  0.6666669831836742  0.52141681169497  1.0000
  Zr  Zr1       1.0  0.3333329854322146  0.6666669831836742  0.3824195364319879  1.0000
  Zr  Zr2       1.0  0.6666669847440476  0.3333329859851446  0.4848005928763562  1.0000
