data_image0
_chemical_formula_structural       C2N2O2Y2
_chemical_formula_sum              "C2 N2 O2 Y2"
_cell_length_a       3.667819453067622
_cell_length_b       3.6678194530748125
_cell_length_c       27.09788921886729
_cell_angle_alpha    90.0
_cell_angle_beta     90.0
_cell_angle_gamma    119.99999999993516

_space_group_name_H-M_alt    "P 1"
_space_group_IT_number       1

loop_
  _space_group_symop_operation_xyz
  'x, y, z'

loop_
  _atom_site_type_symbol
  _atom_site_label
  _atom_site_symmetry_multiplicity
  _atom_site_fract_x
  _atom_site_fract_y
  _atom_site_fract_z
  _atom_site_occupancy
  C   C1        1.0  0.0  0.0  0.5214833542173095  1.0000
  C   C2        1.0  0.6666669847440474  0.3333329859851446  0.376027587273699  1.0000
  N   N1        1.0  0.3333329854322146  0.6666669831836742  0.6201054474325766  1.0000
  N   N2        1.0  0.6666669847440474  0.3333329859851446  0.33212919011173847  1.0000
  O   O1        1.0  0.3333329854322146  0.6666669831836742  0.6678708098882616  1.0000
  O   O2        1.0  0.6666669847440474  0.3333329859851446  0.4252355032382841  1.0000
  Y   Y1        1.0  0.3333329854322146  0.6666669831836742  0.4718788962910107  1.0000
  Y   Y2        1.0  0.6666669847440474  0.3333329859851446  0.5732175132135718  1.0000
