data_image0
_chemical_formula_structural       C2Hf2N3O2
_chemical_formula_sum              "C2 Hf2 N3 O2"
_cell_length_a       3.3349900220630593
_cell_length_b       3.334990022055961
_cell_length_c       27.99101877281117
_cell_angle_alpha    90.0
_cell_angle_beta     90.0
_cell_angle_gamma    120.0000000000704

_space_group_name_H-M_alt    "P 1"
_space_group_IT_number       1

loop_
  _space_group_symop_operation_xyz
  'x, y, z'

loop_
  _atom_site_type_symbol
  _atom_site_label
  _atom_site_symmetry_multiplicity
  _atom_site_fract_x
  _atom_site_fract_y
  _atom_site_fract_z
  _atom_site_occupancy
  C   C1        1.0  0.3333329854322145  0.6666669831836742  0.6360451675219557  1.0000
  C   C2        1.0  0.6666669847440473  0.3333329859851446  0.36395483203018614  1.0000
  Hf  Hf1       1.0  0.3333329854322145  0.6666669831836742  0.46007703841037545  1.0000
  Hf  Hf2       1.0  0.6666669847440473  0.3333329859851446  0.5399229611417582  1.0000
  N   N1        1.0  0.0  0.0  0.500000030006519  1.0000
  N   N2        1.0  0.3333329854322145  0.6666669831836742  0.6784682946680716  1.0000
  N   N3        1.0  0.6666669847440473  0.3333329859851446  0.32153170533192854  1.0000
  O   O1        1.0  0.3333329854322145  0.6666669831836742  0.5881151137934673  1.0000
  O   O2        1.0  0.6666669847440473  0.3333329859851446  0.41188488620653263  1.0000
