data_image0
_chemical_formula_structural       CHN2OSSc2
_chemical_formula_sum              "C1 H1 N2 O1 S1 Sc2"
_cell_length_a       3.37409349584962
_cell_length_b       3.3740934958310986
_cell_length_c       27.08422601786624
_cell_angle_alpha    90.0
_cell_angle_beta     90.0
_cell_angle_gamma    120.00000000018159

_space_group_name_H-M_alt    "P 1"
_space_group_IT_number       1

loop_
  _space_group_symop_operation_xyz
  'x, y, z'

loop_
  _atom_site_type_symbol
  _atom_site_label
  _atom_site_symmetry_multiplicity
  _atom_site_fract_x
  _atom_site_fract_y
  _atom_site_fract_z
  _atom_site_occupancy
  C   C1        1.0  0.3333329854322145  0.6666669831836742  0.6237620876468566  1.0000
  H   H1        1.0  0.6666669847440473  0.3333329859851446  0.33229673958794703  1.0000
  N   N1        1.0  0.0  0.0  0.45613527070363663  1.0000
  N   N2        1.0  0.3333329854322145  0.6666669831836742  0.6677032604120529  1.0000
  O   O1        1.0  0.6666669847440473  0.3333329859851446  0.3686756481953918  1.0000
  S   S1        1.0  0.3333329854322145  0.6666669831836742  0.561968455230871  1.0000
  Sc  Sc1       1.0  0.3333329854322145  0.6666669831836742  0.41311517678245363  1.0000
  Sc  Sc2       1.0  0.6666669847440473  0.3333329859851446  0.5014445089982454  1.0000
