data_image0
_chemical_formula_structural       BrCFHf2
_chemical_formula_sum              "Br1 C1 F1 Hf2"
_cell_length_a       3.400662290452853
_cell_length_b       3.40066229044927
_cell_length_c       23.595482859144447
_cell_angle_alpha    90.0
_cell_angle_beta     90.0
_cell_angle_gamma    120.00000000003485

_space_group_name_H-M_alt    "P 1"
_space_group_IT_number       1

loop_
  _space_group_symop_operation_xyz
  'x, y, z'

loop_
  _atom_site_type_symbol
  _atom_site_label
  _atom_site_symmetry_multiplicity
  _atom_site_fract_x
  _atom_site_fract_y
  _atom_site_fract_z
  _atom_site_occupancy
  Br  Br1       1.0  0.6666669847440474  0.33333298598514477  0.3814289393324301  1.0000
  C   C1        1.0  0.0  0.0  0.5158535808398332  1.0000
  F   F1        1.0  0.3333329854322145  0.6666669831836742  0.61857106066757  1.0000
  Hf  Hf1       1.0  0.3333329854322145  0.6666669831836742  0.4646509520211913  1.0000
  Hf  Hf2       1.0  0.6666669847440474  0.33333298598514477  0.5635953441712113  1.0000
