data_image0
_chemical_formula_structural       HNOY2
_chemical_formula_sum              "H1 N1 O1 Y2"
_cell_length_a       3.5551895035369174
_cell_length_b       3.5551895035371537
_cell_length_c       22.693089072826794
_cell_angle_alpha    90.0
_cell_angle_beta     90.0
_cell_angle_gamma    119.9999999999978

_space_group_name_H-M_alt    "P 1"
_space_group_IT_number       1

loop_
  _space_group_symop_operation_xyz
  'x, y, z'

loop_
  _atom_site_type_symbol
  _atom_site_label
  _atom_site_symmetry_multiplicity
  _atom_site_fract_x
  _atom_site_fract_y
  _atom_site_fract_z
  _atom_site_occupancy
  H   H1        1.0  0.6666669847440474  0.3333329859851446  0.396596513199113  1.0000
  N   N1        1.0  0.0  0.0  0.4952040512479817  1.0000
  O   O1        1.0  0.33333298543221446  0.6666669831836742  0.6034034868008871  1.0000
  Y   Y1        1.0  0.33333298543221446  0.6666669831836742  0.44656645045376464  1.0000
  Y   Y2        1.0  0.6666669847440474  0.3333329859851446  0.5716378810836492  1.0000
