data_image0
_chemical_formula_structural       C2N3S2Ti2
_chemical_formula_sum              "C2 N3 S2 Ti2"
_cell_length_a       3.3027500309534594
_cell_length_b       3.3027500309492344
_cell_length_c       28.55439430946306
_cell_angle_alpha    90.0
_cell_angle_beta     90.0
_cell_angle_gamma    120.00000000004233

_space_group_name_H-M_alt    "P 1"
_space_group_IT_number       1

loop_
  _space_group_symop_operation_xyz
  'x, y, z'

loop_
  _atom_site_type_symbol
  _atom_site_label
  _atom_site_symmetry_multiplicity
  _atom_site_fract_x
  _atom_site_fract_y
  _atom_site_fract_z
  _atom_site_occupancy
  C   C1        1.0  0.3333329854322145  0.6666669831836741  0.6304543224433007  1.0000
  C   C2        1.0  0.6666669847440474  0.3333329859851446  0.3568947516963331  1.0000
  N   N1        1.0  0.0  0.0  0.5070848106441135  1.0000
  N   N2        1.0  0.3333329854322145  0.6666669831836741  0.5866273083610839  1.0000
  N   N3        1.0  0.6666669847440474  0.3333329859851446  0.3151879147728011  1.0000
  S   S1        1.0  0.3333329854322145  0.6666669831836741  0.6848120852271989  1.0000
  S   S2        1.0  0.6666669847440474  0.3333329859851446  0.4156124081265089  1.0000
  Ti  Ti1       1.0  0.3333329854322145  0.6666669831836741  0.4702202633988841  1.0000
  Ti  Ti2       1.0  0.6666669847440474  0.3333329859851446  0.5419423374981225  1.0000
