data_image0
_chemical_formula_structural       CN2O2Ti2
_chemical_formula_sum              "C1 N2 O2 Ti2"
_cell_length_a       3.1241740830022744
_cell_length_b       3.1241740830107454
_cell_length_c       25.383014490443077
_cell_angle_alpha    90.0
_cell_angle_beta     90.0
_cell_angle_gamma    119.99999999991033

_space_group_name_H-M_alt    "P 1"
_space_group_IT_number       1

loop_
  _space_group_symop_operation_xyz
  'x, y, z'

loop_
  _atom_site_type_symbol
  _atom_site_label
  _atom_site_symmetry_multiplicity
  _atom_site_fract_x
  _atom_site_fract_y
  _atom_site_fract_z
  _atom_site_occupancy
  C   C1        1.0  0.0  0.0  0.5000000377059383  1.0000
  N   N1        1.0  0.3333329854322145  0.6666669831836741  0.5944505258621886  1.0000
  N   N2        1.0  0.6666669847440476  0.3333329859851446  0.4055494741378113  1.0000
  O   O1        1.0  0.3333329854322145  0.6666669831836741  0.6454321844480461  1.0000
  O   O2        1.0  0.6666669847440476  0.3333329859851446  0.3545678155519542  1.0000
  Ti  Ti1       1.0  0.3333329854322145  0.6666669831836741  0.4525983016312102  1.0000
  Ti  Ti2       1.0  0.6666669847440476  0.3333329859851446  0.5474016978060046  1.0000
