data_image0
_chemical_formula_structural       BrCClOY2
_chemical_formula_sum              "Br1 C1 Cl1 O1 Y2"
_cell_length_a       3.804990837365076
_cell_length_b       3.8049908373863355
_cell_length_c       25.077324258726588
_cell_angle_alpha    90.0
_cell_angle_beta     90.0
_cell_angle_gamma    119.99999999981519

_space_group_name_H-M_alt    "P 1"
_space_group_IT_number       1

loop_
  _space_group_symop_operation_xyz
  'x, y, z'

loop_
  _atom_site_type_symbol
  _atom_site_label
  _atom_site_symmetry_multiplicity
  _atom_site_fract_x
  _atom_site_fract_y
  _atom_site_fract_z
  _atom_site_occupancy
  Br  Br1       1.0  0.6666669847440476  0.3333329859851446  0.3588899639828246  1.0000
  C   C1        1.0  0.0  0.0  0.4703585768288619  1.0000
  Cl  Cl1       1.0  0.3333329854322145  0.6666669831836742  0.6411100360171755  1.0000
  O   O1        1.0  0.3333329854322145  0.6666669831836742  0.5357642364077628  1.0000
  Y   Y1        1.0  0.3333329854322145  0.6666669831836742  0.4380402701119205  1.0000
  Y   Y2        1.0  0.6666669847440476  0.3333329859851446  0.5612468484436439  1.0000
