data_image0
_chemical_formula_structural       ClHNO2Y2
_chemical_formula_sum              "Cl1 H1 N1 O2 Y2"
_cell_length_a       3.706331650342805
_cell_length_b       3.7063316503422934
_cell_length_c       25.448669201696607
_cell_angle_alpha    90.0
_cell_angle_beta     90.0
_cell_angle_gamma    120.00000000000458

_space_group_name_H-M_alt    "P 1"
_space_group_IT_number       1

loop_
  _space_group_symop_operation_xyz
  'x, y, z'

loop_
  _atom_site_type_symbol
  _atom_site_label
  _atom_site_symmetry_multiplicity
  _atom_site_fract_x
  _atom_site_fract_y
  _atom_site_fract_z
  _atom_site_occupancy
  Cl  Cl1       1.0  0.3333329854322147  0.6666669831836745  0.6463469296304112  1.0000
  H   H1        1.0  0.6666669847440474  0.3333329859851447  0.3536530703695889  1.0000
  N   N1        1.0  0.0  0.0  0.4744761914957537  1.0000
  O   O1        1.0  0.3333329854322147  0.6666669831836745  0.5407348220436681  1.0000
  O   O2        1.0  0.6666669847440474  0.3333329859851447  0.3923692361465156  1.0000
  Y   Y1        1.0  0.3333329854322147  0.6666669831836745  0.44460277767049455  1.0000
  Y   Y2        1.0  0.6666669847440474  0.3333329859851447  0.5678871443111149  1.0000
