data_image0
_chemical_formula_structural       BrCClHf2
_chemical_formula_sum              "Br1 C1 Cl1 Hf2"
_cell_length_a       3.440627716831255
_cell_length_b       3.4406277168247446
_cell_length_c       24.04104811520952
_cell_angle_alpha    90.0
_cell_angle_beta     90.0
_cell_angle_gamma    120.00000000006261

_space_group_name_H-M_alt    "P 1"
_space_group_IT_number       1

loop_
  _space_group_symop_operation_xyz
  'x, y, z'

loop_
  _atom_site_type_symbol
  _atom_site_label
  _atom_site_symmetry_multiplicity
  _atom_site_fract_x
  _atom_site_fract_y
  _atom_site_fract_z
  _atom_site_occupancy
  Br  Br1       1.0  0.6666669847440474  0.3333329859851446  0.37435971829806236  1.0000
  C   C1        1.0  0.0  0.0  0.5039652409706332  1.0000
  Cl  Cl1       1.0  0.3333329854322146  0.6666669831836742  0.6256402817019375  1.0000
  Hf  Hf1       1.0  0.3333329854322146  0.6666669831836742  0.4556357970641071  1.0000
  Hf  Hf2       1.0  0.6666669847440474  0.3333329859851446  0.5518432045674176  1.0000
