data_image0
_chemical_formula_structural       BrCHf2O
_chemical_formula_sum              "Br1 C1 Hf2 O1"
_cell_length_a       3.3411139328049533
_cell_length_b       3.341113932799872
_cell_length_c       23.479613299947577
_cell_angle_alpha    90.0
_cell_angle_beta     90.0
_cell_angle_gamma    120.00000000005032

_space_group_name_H-M_alt    "P 1"
_space_group_IT_number       1

loop_
  _space_group_symop_operation_xyz
  'x, y, z'

loop_
  _atom_site_type_symbol
  _atom_site_label
  _atom_site_symmetry_multiplicity
  _atom_site_fract_x
  _atom_site_fract_y
  _atom_site_fract_z
  _atom_site_occupancy
  Br  Br1       1.0  0.6666669847440475  0.3333329859851446  0.3833112532573139  1.0000
  C   C1        1.0  0.0  0.0  0.5180644891975921  1.0000
  Hf  Hf1       1.0  0.3333329854322146  0.6666669831836742  0.467079706523735  1.0000
  Hf  Hf2       1.0  0.6666669847440475  0.3333329859851446  0.5772480131207267  1.0000
  O   O1        1.0  0.3333329854322146  0.6666669831836742  0.6166887467426863  1.0000
