data_image0
_chemical_formula_structural       CN2OPTi2
_chemical_formula_sum              "C1 N2 O1 P1 Ti2"
_cell_length_a       3.1155902980884
_cell_length_b       3.1155902980839403
_cell_length_c       26.211804108463355
_cell_angle_alpha    90.0
_cell_angle_beta     90.0
_cell_angle_gamma    120.00000000004736

_space_group_name_H-M_alt    "P 1"
_space_group_IT_number       1

loop_
  _space_group_symop_operation_xyz
  'x, y, z'

loop_
  _atom_site_type_symbol
  _atom_site_label
  _atom_site_symmetry_multiplicity
  _atom_site_fract_x
  _atom_site_fract_y
  _atom_site_fract_z
  _atom_site_occupancy
  C   C1        1.0  0.3333329854322145  0.6666669831836742  0.6106342096495361  1.0000
  N   N1        1.0  0.0  0.0  0.5136963643335323  1.0000
  N   N2        1.0  0.3333329854322145  0.6666669831836742  0.6566432450525581  1.0000
  O   O1        1.0  0.6666669847440473  0.3333329859851447  0.3433567549474418  1.0000
  P   P1        1.0  0.6666669847440473  0.3333329859851447  0.40022618180051944  1.0000
  Ti  Ti1       1.0  0.3333329854322145  0.6666669831836742  0.47045171175307837  1.0000
  Ti  Ti2       1.0  0.6666669847440473  0.3333329859851447  0.5571051253972716  1.0000
