data_image0
_chemical_formula_structural       CHN2OSc2
_chemical_formula_sum              "C1 H1 N2 O1 Sc2"
_cell_length_a       3.25504645608242
_cell_length_b       3.2550464560518195
_cell_length_c       25.233325597169273
_cell_angle_alpha    90.0
_cell_angle_beta     90.0
_cell_angle_gamma    120.00000000031098

_space_group_name_H-M_alt    "P 1"
_space_group_IT_number       1

loop_
  _space_group_symop_operation_xyz
  'x, y, z'

loop_
  _atom_site_type_symbol
  _atom_site_label
  _atom_site_symmetry_multiplicity
  _atom_site_fract_x
  _atom_site_fract_y
  _atom_site_fract_z
  _atom_site_occupancy
  C   C1        1.0  0.33333298543221457  0.6666669831836741  0.5956056343559486  1.0000
  H   H1        1.0  0.6666669847440474  0.3333329859851445  0.3566711793632797  1.0000
  N   N1        1.0  0.0  0.0  0.444842318527954  1.0000
  N   N2        1.0  0.33333298543221457  0.6666669831836741  0.546288568811248  1.0000
  O   O1        1.0  0.33333298543221457  0.6666669831836741  0.6433288206367203  1.0000
  Sc  Sc1       1.0  0.33333298543221457  0.6666669831836741  0.395762107993013  1.0000
  Sc  Sc2       1.0  0.6666669847440474  0.3333329859851445  0.4924153899547141  1.0000
