data_image0
_chemical_formula_structural       C3N2OSY2
_chemical_formula_sum              "C3 N2 O1 S1 Y2"
_cell_length_a       3.73416428754427
_cell_length_b       3.7341642875959113
_cell_length_c       29.131323987119547
_cell_angle_alpha    90.0
_cell_angle_beta     90.0
_cell_angle_gamma    119.99999999954252

_space_group_name_H-M_alt    "P 1"
_space_group_IT_number       1

loop_
  _space_group_symop_operation_xyz
  'x, y, z'

loop_
  _atom_site_type_symbol
  _atom_site_label
  _atom_site_symmetry_multiplicity
  _atom_site_fract_x
  _atom_site_fract_y
  _atom_site_fract_z
  _atom_site_occupancy
  C   C1        1.0  0.0  0.0  0.5134217048462479  1.0000
  C   C2        1.0  0.3333329854322145  0.6666669831836742  0.6496598935514076  1.0000
  C   C3        1.0  0.6666669847440472  0.3333329859851447  0.3498055907905875  1.0000
  N   N1        1.0  0.3333329854322145  0.6666669831836742  0.6067984871801354  1.0000
  N   N2        1.0  0.6666669847440472  0.3333329859851447  0.3089457933315822  1.0000
  O   O1        1.0  0.3333329854322145  0.6666669831836742  0.6910542066684178  1.0000
  S   S1        1.0  0.6666669847440472  0.3333329859851447  0.4072637206995633  1.0000
  Y   Y1        1.0  0.3333329854322145  0.6666669831836742  0.4674609316886222  1.0000
  Y   Y2        1.0  0.6666669847440472  0.3333329859851447  0.5599205913109085  1.0000
