data_image0
_chemical_formula_structural       C2NO2PZr2
_chemical_formula_sum              "C2 N1 O2 P1 Zr2"
_cell_length_a       3.3396336109355222
_cell_length_b       3.3396336109128306
_cell_length_c       27.946086211225158
_cell_angle_alpha    90.0
_cell_angle_beta     90.0
_cell_angle_gamma    120.00000000022477

_space_group_name_H-M_alt    "P 1"
_space_group_IT_number       1

loop_
  _space_group_symop_operation_xyz
  'x, y, z'

loop_
  _atom_site_type_symbol
  _atom_site_label
  _atom_site_symmetry_multiplicity
  _atom_site_fract_x
  _atom_site_fract_y
  _atom_site_fract_z
  _atom_site_occupancy
  C   C1        1.0  0.0  0.0  0.4934766446956649  1.0000
  C   C2        1.0  0.3333329854322145  0.6666669831836742  0.6348734623174972  1.0000
  N   N1        1.0  0.3333329854322145  0.6666669831836742  0.5902361281456093  1.0000
  O   O1        1.0  0.3333329854322145  0.6666669831836742  0.6779513262796367  1.0000
  O   O2        1.0  0.6666669847440476  0.33333298598514444  0.3220486737203634  1.0000
  P   P1        1.0  0.6666669847440476  0.33333298598514444  0.3754431032741135  1.0000
  Zr  Zr1       1.0  0.3333329854322145  0.6666669831836742  0.44716809276488567  1.0000
  Zr  Zr2       1.0  0.6666669847440476  0.33333298598514444  0.5383374026829928  1.0000
