data_image0
_chemical_formula_structural       BrClNY2
_chemical_formula_sum              "Br1 Cl1 N1 Y2"
_cell_length_a       3.649520441789745
_cell_length_b       3.6495204418047655
_cell_length_c       24.33202639874441
_cell_angle_alpha    90.0
_cell_angle_beta     90.0
_cell_angle_gamma    119.99999999986386

_space_group_name_H-M_alt    "P 1"
_space_group_IT_number       1

loop_
  _space_group_symop_operation_xyz
  'x, y, z'

loop_
  _atom_site_type_symbol
  _atom_site_label
  _atom_site_symmetry_multiplicity
  _atom_site_fract_x
  _atom_site_fract_y
  _atom_site_fract_z
  _atom_site_occupancy
  Br  Br1       1.0  0.6666669847440474  0.3333329859851446  0.3698828799751928  1.0000
  Cl  Cl1       1.0  0.3333329854322145  0.6666669831836742  0.6301171200248072  1.0000
  N   N1        1.0  0.0  0.0  0.5043730688652358  1.0000
  Y   Y1        1.0  0.3333329854322145  0.6666669831836742  0.4506589465546376  1.0000
  Y   Y2        1.0  0.6666669847440474  0.3333329859851446  0.5573177166061577  1.0000
