data_image0
_chemical_formula_structural       C3Hf2N2S2
_chemical_formula_sum              "C3 Hf2 N2 S2"
_cell_length_a       3.4475026608430706
_cell_length_b       3.4475026608437216
_cell_length_c       29.061559487478466
_cell_angle_alpha    90.0
_cell_angle_beta     90.0
_cell_angle_gamma    119.99999999999376

_space_group_name_H-M_alt    "P 1"
_space_group_IT_number       1

loop_
  _space_group_symop_operation_xyz
  'x, y, z'

loop_
  _atom_site_type_symbol
  _atom_site_label
  _atom_site_symmetry_multiplicity
  _atom_site_fract_x
  _atom_site_fract_y
  _atom_site_fract_z
  _atom_site_occupancy
  C   C1        1.0  0.0  0.0  0.5074784251553364  1.0000
  C   C2        1.0  0.3333329854322145  0.6666669831836742  0.6368677479480984  1.0000
  C   C3        1.0  0.6666669847440474  0.3333329859851446  0.3506416342895971  1.0000
  Hf  Hf1       1.0  0.3333329854322145  0.6666669831836742  0.4658071984951106  1.0000
  Hf  Hf2       1.0  0.6666669847440474  0.3333329859851446  0.5469585668987815  1.0000
  N   N1        1.0  0.3333329854322145  0.6666669831836742  0.5936164432889273  1.0000
  N   N2        1.0  0.6666669847440474  0.3333329859851446  0.3096874413734665  1.0000
  S   S1        1.0  0.3333329854322145  0.6666669831836742  0.6903125586265335  1.0000
  S   S2        1.0  0.6666669847440474  0.3333329859851446  0.4086868774674055  1.0000
