data_image0
_chemical_formula_structural       NO2PTi2
_chemical_formula_sum              "N1 O2 P1 Ti2"
_cell_length_a       3.070690190342348
_cell_length_b       3.070690190342205
_cell_length_c       24.654648902844485
_cell_angle_alpha    90.0
_cell_angle_beta     90.0
_cell_angle_gamma    120.00000000000155

_space_group_name_H-M_alt    "P 1"
_space_group_IT_number       1

loop_
  _space_group_symop_operation_xyz
  'x, y, z'

loop_
  _atom_site_type_symbol
  _atom_site_label
  _atom_site_symmetry_multiplicity
  _atom_site_fract_x
  _atom_site_fract_y
  _atom_site_fract_z
  _atom_site_occupancy
  N   N1        1.0  0.0  0.0  0.4528354801466141  1.0000
  O   O1        1.0  0.3333329854322145  0.6666669831836742  0.6349572838994417  1.0000
  O   O2        1.0  0.6666669847440475  0.3333329859851446  0.3650427161005583  1.0000
  P   P1        1.0  0.3333329854322145  0.6666669831836742  0.5745534724495758  1.0000
  Ti  Ti1       1.0  0.3333329854322145  0.6666669831836742  0.4018484926971598  1.0000
  Ti  Ti2       1.0  0.6666669847440475  0.3333329859851446  0.49986005799025357  1.0000
