data_image0
_chemical_formula_structural       BrCN2SY2
_chemical_formula_sum              "Br1 C1 N2 S1 Y2"
_cell_length_a       3.630227404564282
_cell_length_b       3.630227404569082
_cell_length_c       26.765228082324526
_cell_angle_alpha    90.0
_cell_angle_beta     90.0
_cell_angle_gamma    119.99999999995627

_space_group_name_H-M_alt    "P 1"
_space_group_IT_number       1

loop_
  _space_group_symop_operation_xyz
  'x, y, z'

loop_
  _atom_site_type_symbol
  _atom_site_label
  _atom_site_symmetry_multiplicity
  _atom_site_fract_x
  _atom_site_fract_y
  _atom_site_fract_z
  _atom_site_occupancy
  Br  Br1       1.0  0.6666669847440474  0.3333329859851447  0.3362571756279374  1.0000
  C   C1        1.0  0.3333329854322145  0.6666669831836742  0.6054955069766725  1.0000
  N   N1        1.0  0.0  0.0  0.4586714750356115  1.0000
  N   N2        1.0  0.3333329854322145  0.6666669831836742  0.5588304806862112  1.0000
  S   S1        1.0  0.3333329854322145  0.6666669831836742  0.6637428243720626  1.0000
  Y   Y1        1.0  0.3333329854322145  0.6666669831836742  0.4099649818281916  1.0000
  Y   Y2        1.0  0.6666669847440474  0.3333329859851447  0.5078615151459487  1.0000
