data_image0
_chemical_formula_structural       C3N2S2Ti2
_chemical_formula_sum              "C3 N2 S2 Ti2"
_cell_length_a       3.232674214530284
_cell_length_b       3.2326742145331786
_cell_length_c       28.406038447221444
_cell_angle_alpha    90.0
_cell_angle_beta     90.0
_cell_angle_gamma    119.99999999997037

_space_group_name_H-M_alt    "P 1"
_space_group_IT_number       1

loop_
  _space_group_symop_operation_xyz
  'x, y, z'

loop_
  _atom_site_type_symbol
  _atom_site_label
  _atom_site_symmetry_multiplicity
  _atom_site_fract_x
  _atom_site_fract_y
  _atom_site_fract_z
  _atom_site_occupancy
  C   C1        1.0  0.0  0.0  0.5000000317042744  1.0000
  C   C2        1.0  0.3333329854322145  0.6666669831836742  0.6285374034026691  1.0000
  C   C3        1.0  0.6666669847440474  0.3333329859851446  0.3714625965973308  1.0000
  N   N1        1.0  0.3333329854322145  0.6666669831836742  0.5844712488177112  1.0000
  N   N2        1.0  0.6666669847440474  0.3333329859851446  0.4155287516519813  1.0000
  S   S1        1.0  0.3333329854322145  0.6666669831836742  0.6831659572410267  1.0000
  S   S2        1.0  0.6666669847440474  0.3333329859851446  0.3168340427589733  1.0000
  Ti  Ti1       1.0  0.3333329854322145  0.6666669831836742  0.4605657751331771  1.0000
  Ti  Ti2       1.0  0.6666669847440474  0.3333329859851446  0.5394342248668138  1.0000
