data_image0
_chemical_formula_structural       CH2OSc2
_chemical_formula_sum              "C1 H2 O1 Sc2"
_cell_length_a       3.307723158326014
_cell_length_b       3.3077231583168576
_cell_length_c       23.76462575760871
_cell_angle_alpha    90.0
_cell_angle_beta     90.0
_cell_angle_gamma    120.00000000009156

_space_group_name_H-M_alt    "P 1"
_space_group_IT_number       1

loop_
  _space_group_symop_operation_xyz
  'x, y, z'

loop_
  _atom_site_type_symbol
  _atom_site_label
  _atom_site_symmetry_multiplicity
  _atom_site_fract_x
  _atom_site_fract_y
  _atom_site_fract_z
  _atom_site_occupancy
  C   C1        1.0  0.0  0.0  0.5256710530743958  1.0000
  H   H1        1.0  0.3333329854322145  0.6666669831836742  0.6212858518456377  1.0000
  H   H2        1.0  0.6666669847440474  0.3333329859851446  0.37871414815436244  1.0000
  O   O1        1.0  0.6666669847440474  0.3333329859851446  0.42008287624987  1.0000
  Sc  Sc1       1.0  0.3333329854322145  0.6666669831836742  0.47195252066961835  1.0000
  Sc  Sc2       1.0  0.6666669847440474  0.3333329859851446  0.5780490636754748  1.0000
