data_image0
_chemical_formula_structural       CFHHf2
_chemical_formula_sum              "C1 F1 H1 Hf2"
_cell_length_a       3.3130776923488594
_cell_length_b       3.313077692347487
_cell_length_c       22.717881953322248
_cell_angle_alpha    90.0
_cell_angle_beta     90.0
_cell_angle_gamma    120.0000000000137

_space_group_name_H-M_alt    "P 1"
_space_group_IT_number       1

loop_
  _space_group_symop_operation_xyz
  'x, y, z'

loop_
  _atom_site_type_symbol
  _atom_site_label
  _atom_site_symmetry_multiplicity
  _atom_site_fract_x
  _atom_site_fract_y
  _atom_site_fract_z
  _atom_site_occupancy
  C   C1        1.0  0.0  0.0  0.4952242986922624  1.0000
  F   F1        1.0  0.3333329854322145  0.6666669831836742  0.6038363075179266  1.0000
  H   H1        1.0  0.6666669847440476  0.3333329859851446  0.3961636924820734  1.0000
  Hf  Hf1       1.0  0.3333329854322145  0.6666669831836742  0.4392600568130256  1.0000
  Hf  Hf2       1.0  0.6666669847440476  0.3333329859851446  0.5459183411079366  1.0000
