data_image0
_chemical_formula_structural       CClN2OSc2
_chemical_formula_sum              "C1 Cl1 N2 O1 Sc2"
_cell_length_a       3.2939581530957414
_cell_length_b       3.293958153095808
_cell_length_c       28.09656946382543
_cell_angle_alpha    90.0
_cell_angle_beta     90.0
_cell_angle_gamma    119.99999999999933

_space_group_name_H-M_alt    "P 1"
_space_group_IT_number       1

loop_
  _space_group_symop_operation_xyz
  'x, y, z'

loop_
  _atom_site_type_symbol
  _atom_site_label
  _atom_site_symmetry_multiplicity
  _atom_site_fract_x
  _atom_site_fract_y
  _atom_site_fract_z
  _atom_site_occupancy
  C   C1        1.0  0.33333298543221446  0.6666669831836742  0.6370856199815105  1.0000
  Cl  Cl1       1.0  0.6666669847440474  0.3333329859851446  0.3203238036439849  1.0000
  N   N1        1.0  0.0  0.0  0.5473742881992023  1.0000
  N   N2        1.0  0.33333298543221446  0.6666669831836742  0.6796761963560151  1.0000
  O   O1        1.0  0.6666669847440474  0.3333329859851446  0.4659568533295274  1.0000
  Sc  Sc1       1.0  0.33333298543221446  0.6666669831836742  0.49008307850076643  1.0000
  Sc  Sc2       1.0  0.6666669847440474  0.3333329859851446  0.5832618941841173  1.0000
