data_image0
_chemical_formula_structural       CN2OZr2
_chemical_formula_sum              "C1 N2 O1 Zr2"
_cell_length_a       3.298884339386537
_cell_length_b       3.298884339386344
_cell_length_c       24.297471864881572
_cell_angle_alpha    90.0
_cell_angle_beta     90.0
_cell_angle_gamma    120.00000000000192

_space_group_name_H-M_alt    "P 1"
_space_group_IT_number       1

loop_
  _space_group_symop_operation_xyz
  'x, y, z'

loop_
  _atom_site_type_symbol
  _atom_site_label
  _atom_site_symmetry_multiplicity
  _atom_site_fract_x
  _atom_site_fract_y
  _atom_site_fract_z
  _atom_site_occupancy
  C   C1        1.0  0.3333329854322145  0.6666669831836742  0.5799149097023035  1.0000
  N   N1        1.0  0.0  0.0  0.464054205308315  1.0000
  N   N2        1.0  0.3333329854322145  0.6666669831836742  0.6295910928491215  1.0000
  O   O1        1.0  0.6666669847440474  0.33333298598514477  0.37040890715087843  1.0000
  Zr  Zr1       1.0  0.3333329854322145  0.6666669831836742  0.4103433670501728  1.0000
  Zr  Zr2       1.0  0.6666669847440474  0.33333298598514477  0.5185480520169061  1.0000
