data_image0
_chemical_formula_structural       CFN2STi2
_chemical_formula_sum              "C1 F1 N2 S1 Ti2"
_cell_length_a       3.309882109845101
_cell_length_b       3.309882109840215
_cell_length_c       25.63739858136273
_cell_angle_alpha    90.0
_cell_angle_beta     90.0
_cell_angle_gamma    120.00000000004884

_space_group_name_H-M_alt    "P 1"
_space_group_IT_number       1

loop_
  _space_group_symop_operation_xyz
  'x, y, z'

loop_
  _atom_site_type_symbol
  _atom_site_label
  _atom_site_symmetry_multiplicity
  _atom_site_fract_x
  _atom_site_fract_y
  _atom_site_fract_z
  _atom_site_occupancy
  C   C1        1.0  0.3333329854322145  0.6666669831836742  0.6024906771122358  1.0000
  F   F1        1.0  0.6666669847440472  0.33333298598514444  0.3510496578440921  1.0000
  N   N1        1.0  0.0  0.0  0.4342075299851666  1.0000
  N   N2        1.0  0.3333329854322145  0.6666669831836742  0.6489503421559081  1.0000
  S   S1        1.0  0.3333329854322145  0.6666669831836742  0.5370015813549802  1.0000
  Ti  Ti1       1.0  0.3333329854322145  0.6666669831836742  0.39715129633807794  1.0000
  Ti  Ti2       1.0  0.6666669847440472  0.33333298598514444  0.47662812502309654  1.0000
