data_image0
_chemical_formula_structural       C2NOPSY2
_chemical_formula_sum              "C2 N1 O1 P1 S1 Y2"
_cell_length_a       3.651282142073796
_cell_length_b       3.6512821420958335
_cell_length_c       28.502762151629984
_cell_angle_alpha    90.0
_cell_angle_beta     90.0
_cell_angle_gamma    119.99999999980035

_space_group_name_H-M_alt    "P 1"
_space_group_IT_number       1

loop_
  _space_group_symop_operation_xyz
  'x, y, z'

loop_
  _atom_site_type_symbol
  _atom_site_label
  _atom_site_symmetry_multiplicity
  _atom_site_fract_x
  _atom_site_fract_y
  _atom_site_fract_z
  _atom_site_occupancy
  C   C1        1.0  0.0  0.0  0.4892666631253649  1.0000
  C   C2        1.0  0.3333329854322146  0.6666669831836742  0.6295418289513648  1.0000
  N   N1        1.0  0.3333329854322146  0.6666669831836742  0.5857577192358786  1.0000
  O   O1        1.0  0.6666669847440475  0.3333329859851447  0.31575887109191336  1.0000
  P   P1        1.0  0.6666669847440475  0.3333329859851447  0.3683221853894726  1.0000
  S   S1        1.0  0.3333329854322146  0.6666669831836742  0.6842411289080865  1.0000
  Y   Y1        1.0  0.3333329854322146  0.6666669831836742  0.4426978639565738  1.0000
  Y   Y2        1.0  0.6666669847440475  0.3333329859851447  0.5377056410855342  1.0000
