data_image0
_chemical_formula_structural       C2HNOSZr2
_chemical_formula_sum              "C2 H1 N1 O1 S1 Zr2"
_cell_length_a       3.4567791879380194
_cell_length_b       3.456779187927257
_cell_length_c       27.3310897712668
_cell_angle_alpha    90.0
_cell_angle_beta     90.0
_cell_angle_gamma    120.00000000010299

_space_group_name_H-M_alt    "P 1"
_space_group_IT_number       1

loop_
  _space_group_symop_operation_xyz
  'x, y, z'

loop_
  _atom_site_type_symbol
  _atom_site_label
  _atom_site_symmetry_multiplicity
  _atom_site_fract_x
  _atom_site_fract_y
  _atom_site_fract_z
  _atom_site_occupancy
  C   C1        1.0  0.0  0.0  0.4568331059028518  1.0000
  C   C2        1.0  0.3333329854322146  0.6666669831836742  0.6271438168809989  1.0000
  H   H1        1.0  0.6666669847440474  0.3333329859851445  0.329295321749728  1.0000
  N   N1        1.0  0.3333329854322146  0.6666669831836742  0.670704678250272  1.0000
  O   O1        1.0  0.6666669847440474  0.3333329859851445  0.3653780271520888  1.0000
  S   S1        1.0  0.3333329854322146  0.6666669831836742  0.5656095654002538  1.0000
  Zr  Zr1       1.0  0.3333329854322146  0.6666669831836742  0.4145548228188383  1.0000
  Zr  Zr2       1.0  0.6666669847440474  0.3333329859851445  0.503162135405877  1.0000
