data_image0
_chemical_formula_structural       CHN2SY2
_chemical_formula_sum              "C1 H1 N2 S1 Y2"
_cell_length_a       3.622134883172095
_cell_length_b       3.6221348831758977
_cell_length_c       26.226535966703125
_cell_angle_alpha    90.0
_cell_angle_beta     90.0
_cell_angle_gamma    119.99999999996528

_space_group_name_H-M_alt    "P 1"
_space_group_IT_number       1

loop_
  _space_group_symop_operation_xyz
  'x, y, z'

loop_
  _atom_site_type_symbol
  _atom_site_label
  _atom_site_symmetry_multiplicity
  _atom_site_fract_x
  _atom_site_fract_y
  _atom_site_fract_z
  _atom_site_occupancy
  C   C1        1.0  0.3333329854322145  0.6666669831836742  0.6114584286420002  1.0000
  H   H1        1.0  0.6666669847440474  0.3333329859851447  0.343163886051375  1.0000
  N   N1        1.0  0.0  0.0  0.43030403678086576  1.0000
  N   N2        1.0  0.3333329854322145  0.6666669831836742  0.656836113948625  1.0000
  S   S1        1.0  0.3333329854322145  0.6666669831836742  0.5475534410597014  1.0000
  Y   Y1        1.0  0.3333329854322145  0.6666669831836742  0.3806570841783563  1.0000
  Y   Y2        1.0  0.6666669847440474  0.3333329859851447  0.48060128768242394  1.0000
