data_image0
_chemical_formula_structural       C2HNOY2
_chemical_formula_sum              "C2 H1 N1 O1 Y2"
_cell_length_a       3.6327877978407286
_cell_length_b       3.632787797838303
_cell_length_c       25.569134061804235
_cell_angle_alpha    90.0
_cell_angle_beta     90.0
_cell_angle_gamma    120.0000000000221

_space_group_name_H-M_alt    "P 1"
_space_group_IT_number       1

loop_
  _space_group_symop_operation_xyz
  'x, y, z'

loop_
  _atom_site_type_symbol
  _atom_site_label
  _atom_site_symmetry_multiplicity
  _atom_site_fract_x
  _atom_site_fract_y
  _atom_site_fract_z
  _atom_site_occupancy
  C   C1        1.0  0.0  0.0  0.5540638744808978  1.0000
  C   C2        1.0  0.6666669847440473  0.3333329859851446  0.3984989156579623  1.0000
  H   H1        1.0  0.3333329854322145  0.6666669831836742  0.6480131091555263  1.0000
  N   N1        1.0  0.6666669847440473  0.3333329859851446  0.3519868908444735  1.0000
  O   O1        1.0  0.6666669847440473  0.3333329859851446  0.4506273975649067  1.0000
  Y   Y1        1.0  0.3333329854322145  0.6666669831836742  0.500797496917428  1.0000
  Y   Y2        1.0  0.6666669847440473  0.3333329859851446  0.6076731160862094  1.0000
