data_image0
_chemical_formula_structural       CHf2N2OPS
_chemical_formula_sum              "C1 Hf2 N2 O1 P1 S1"
_cell_length_a       3.346162005252076
_cell_length_b       3.346162005245606
_cell_length_c       28.397864423234793
_cell_angle_alpha    90.0
_cell_angle_beta     90.0
_cell_angle_gamma    120.00000000006396

_space_group_name_H-M_alt    "P 1"
_space_group_IT_number       1

loop_
  _space_group_symop_operation_xyz
  'x, y, z'

loop_
  _atom_site_type_symbol
  _atom_site_label
  _atom_site_symmetry_multiplicity
  _atom_site_fract_x
  _atom_site_fract_y
  _atom_site_fract_z
  _atom_site_occupancy
  C   C1        1.0  0.3333329854322143  0.6666669831836741  0.6411587095795462  1.0000
  Hf  Hf1       1.0  0.3333329854322143  0.6666669831836741  0.4364901694150848  1.0000
  Hf  Hf2       1.0  0.6666669847440474  0.3333329859851446  0.5230003114068734  1.0000
  N   N1        1.0  0.0  0.0  0.4777719396121571  1.0000
  N   N2        1.0  0.3333329854322143  0.6666669831836741  0.6830747599232742  1.0000
  O   O1        1.0  0.6666669847440474  0.3333329859851446  0.3169252400767258  1.0000
  P   P1        1.0  0.6666669847440474  0.3333329859851446  0.369617934647366  1.0000
  S   S1        1.0  0.3333329854322143  0.6666669831836741  0.5810787983834264  1.0000
