data_image0
_chemical_formula_structural       C2ClHf2NS
_chemical_formula_sum              "C2 Cl1 Hf2 N1 S1"
_cell_length_a       3.383705830141029
_cell_length_b       3.383705830131928
_cell_length_c       26.337541538955715
_cell_angle_alpha    90.0
_cell_angle_beta     90.0
_cell_angle_gamma    120.00000000008897

_space_group_name_H-M_alt    "P 1"
_space_group_IT_number       1

loop_
  _space_group_symop_operation_xyz
  'x, y, z'

loop_
  _atom_site_type_symbol
  _atom_site_label
  _atom_site_symmetry_multiplicity
  _atom_site_fract_x
  _atom_site_fract_y
  _atom_site_fract_z
  _atom_site_occupancy
  C   C1        1.0  0.0  0.0  0.4541815429407329  1.0000
  C   C2        1.0  0.3333329854322145  0.6666669831836742  0.5993505800931538  1.0000
  Cl  Cl1       1.0  0.6666669847440473  0.3333329859851446  0.34171754363208684  1.0000
  Hf  Hf1       1.0  0.3333329854322145  0.6666669831836742  0.4097271977547573  1.0000
  Hf  Hf2       1.0  0.6666669847440473  0.3333329859851446  0.5002106534748337  1.0000
  N   N1        1.0  0.3333329854322145  0.6666669831836742  0.5515495691406609  1.0000
  S   S1        1.0  0.3333329854322145  0.6666669831836742  0.6582824563679132  1.0000
