data_image0
_chemical_formula_structural       BrC2NSY2
_chemical_formula_sum              "Br1 C2 N1 S1 Y2"
_cell_length_a       3.8068380976465686
_cell_length_b       3.806838097734552
_cell_length_c       27.165232400692155
_cell_angle_alpha    90.0
_cell_angle_beta     90.0
_cell_angle_gamma    119.99999999923546

_space_group_name_H-M_alt    "P 1"
_space_group_IT_number       1

loop_
  _space_group_symop_operation_xyz
  'x, y, z'

loop_
  _atom_site_type_symbol
  _atom_site_label
  _atom_site_symmetry_multiplicity
  _atom_site_fract_x
  _atom_site_fract_y
  _atom_site_fract_z
  _atom_site_occupancy
  Br  Br1       1.0  0.6666669847440474  0.3333329859851445  0.3313058348718815  1.0000
  C   C1        1.0  0.0  0.0  0.45091238165162306  1.0000
  C   C2        1.0  0.3333329854322147  0.6666669831836742  0.62488098976966  1.0000
  N   N1        1.0  0.3333329854322147  0.6666669831836742  0.6686941651281186  1.0000
  S   S1        1.0  0.3333329854322147  0.6666669831836742  0.5632110691877743  1.0000
  Y   Y1        1.0  0.3333329854322147  0.6666669831836742  0.4018142263293095  1.0000
  Y   Y2        1.0  0.6666669847440474  0.3333329859851445  0.4998190270102402  1.0000
