data_image0
_chemical_formula_structural       C2N3O2Y2
_chemical_formula_sum              "C2 N3 O2 Y2"
_cell_length_a       3.542556455797038
_cell_length_b       3.5425564557851588
_cell_length_c       28.426252777618398
_cell_angle_alpha    90.0
_cell_angle_beta     90.0
_cell_angle_gamma    120.00000000011093

_space_group_name_H-M_alt    "P 1"
_space_group_IT_number       1

loop_
  _space_group_symop_operation_xyz
  'x, y, z'

loop_
  _atom_site_type_symbol
  _atom_site_label
  _atom_site_symmetry_multiplicity
  _atom_site_fract_x
  _atom_site_fract_y
  _atom_site_fract_z
  _atom_site_occupancy
  C   C1        1.0  0.3333329854322147  0.6666669831836745  0.6409902304936277  1.0000
  C   C2        1.0  0.6666669847440475  0.3333329859851447  0.3590097691155422  1.0000
  N   N1        1.0  0.0  0.0  0.5000000261860675  1.0000
  N   N2        1.0  0.3333329854322147  0.6666669831836745  0.5971521855902641  1.0000
  N   N3        1.0  0.6666669847440475  0.3333329859851447  0.4028478144097424  1.0000
  O   O1        1.0  0.3333329854322147  0.6666669831836745  0.6833912626328921  1.0000
  O   O2        1.0  0.6666669847440475  0.3333329859851447  0.31660873736710776  1.0000
  Y   Y1        1.0  0.3333329854322147  0.6666669831836745  0.45337454061482235  1.0000
  Y   Y2        1.0  0.6666669847440475  0.3333329859851447  0.5466254589943407  1.0000
