data_image0
_chemical_formula_structural       CFOPSc2
_chemical_formula_sum              "C1 F1 O1 P1 Sc2"
_cell_length_a       3.363998751798044
_cell_length_b       3.363998751794782
_cell_length_c       25.099244999864734
_cell_angle_alpha    90.0
_cell_angle_beta     90.0
_cell_angle_gamma    120.00000000003207

_space_group_name_H-M_alt    "P 1"
_space_group_IT_number       1

loop_
  _space_group_symop_operation_xyz
  'x, y, z'

loop_
  _atom_site_type_symbol
  _atom_site_label
  _atom_site_symmetry_multiplicity
  _atom_site_fract_x
  _atom_site_fract_y
  _atom_site_fract_z
  _atom_site_occupancy
  C   C1        1.0  0.0  0.0  0.4532684952335939  1.0000
  F   F1        1.0  0.6666669847440474  0.3333329859851447  0.35857652292124725  1.0000
  O   O1        1.0  0.3333329854322145  0.6666669831836742  0.6414234770787526  1.0000
  P   P1        1.0  0.3333329854322145  0.6666669831836742  0.5818574591630993  1.0000
  Sc  Sc1       1.0  0.3333329854322145  0.6666669831836742  0.40264985761159294  1.0000
  Sc  Sc2       1.0  0.6666669847440474  0.3333329859851447  0.5012777131343384  1.0000
