data_image0
_chemical_formula_structural       HNO2Zr2
_chemical_formula_sum              "H1 N1 O2 Zr2"
_cell_length_a       3.265726286140669
_cell_length_b       3.26572628613654
_cell_length_c       23.99094390304636
_cell_angle_alpha    90.0
_cell_angle_beta     90.0
_cell_angle_gamma    120.00000000004182

_space_group_name_H-M_alt    "P 1"
_space_group_IT_number       1

loop_
  _space_group_symop_operation_xyz
  'x, y, z'

loop_
  _atom_site_type_symbol
  _atom_site_label
  _atom_site_symmetry_multiplicity
  _atom_site_fract_x
  _atom_site_fract_y
  _atom_site_fract_z
  _atom_site_occupancy
  H   H1        1.0  0.6666669847440474  0.3333329859851446  0.37514155492886564  1.0000
  N   N1        1.0  0.0  0.0  0.5283882422758008  1.0000
  O   O1        1.0  0.33333298543221457  0.6666669831836742  0.6248584450711344  1.0000
  O   O2        1.0  0.6666669847440474  0.3333329859851446  0.4164923623152965  1.0000
  Zr  Zr1       1.0  0.33333298543221457  0.6666669831836742  0.4737411575819143  1.0000
  Zr  Zr2       1.0  0.6666669847440474  0.3333329859851446  0.5831884654106211  1.0000
