data_image0
_chemical_formula_structural       CFHOY2
_chemical_formula_sum              "C1 F1 H1 O1 Y2"
_cell_length_a       3.598236163664707
_cell_length_b       3.59823616366965
_cell_length_c       24.219320773856925
_cell_angle_alpha    90.0
_cell_angle_beta     90.0
_cell_angle_gamma    119.99999999995457

_space_group_name_H-M_alt    "P 1"
_space_group_IT_number       1

loop_
  _space_group_symop_operation_xyz
  'x, y, z'

loop_
  _atom_site_type_symbol
  _atom_site_label
  _atom_site_symmetry_multiplicity
  _atom_site_fract_x
  _atom_site_fract_y
  _atom_site_fract_z
  _atom_site_occupancy
  C   C1        1.0  0.0  0.0  0.5230037926963957  1.0000
  F   F1        1.0  0.3333329854322145  0.6666669831836742  0.6283958545313593  1.0000
  H   H1        1.0  0.6666669847440475  0.3333329859851446  0.3716041454686407  1.0000
  O   O1        1.0  0.6666669847440475  0.3333329859851446  0.4122730347829145  1.0000
  Y   Y1        1.0  0.3333329854322145  0.6666669831836742  0.4659785915762705  1.0000
  Y   Y2        1.0  0.6666669847440475  0.3333329859851446  0.5795707634196597  1.0000
