data_image0
_chemical_formula_structural       CClN2OSc2
_chemical_formula_sum              "C1 Cl1 N2 O1 Sc2"
_cell_length_a       3.3321186228007607
_cell_length_b       3.332118622792264
_cell_length_c       25.885698414106734
_cell_angle_alpha    90.0
_cell_angle_beta     90.0
_cell_angle_gamma    120.00000000008437

_space_group_name_H-M_alt    "P 1"
_space_group_IT_number       1

loop_
  _space_group_symop_operation_xyz
  'x, y, z'

loop_
  _atom_site_type_symbol
  _atom_site_label
  _atom_site_symmetry_multiplicity
  _atom_site_fract_x
  _atom_site_fract_y
  _atom_site_fract_z
  _atom_site_occupancy
  C   C1        1.0  0.33333298543221446  0.6666669831836742  0.6057879333093132  1.0000
  Cl  Cl1       1.0  0.6666669847440474  0.3333329859851446  0.34768233238379  1.0000
  N   N1        1.0  0.0  0.0  0.45971779516609973  1.0000
  N   N2        1.0  0.33333298543221446  0.6666669831836742  0.5576558248325745  1.0000
  O   O1        1.0  0.33333298543221446  0.6666669831836742  0.6523176676162101  1.0000
  Sc  Sc1       1.0  0.33333298543221446  0.6666669831836742  0.4133217592176265  1.0000
  Sc  Sc2       1.0  0.6666669847440474  0.3333329859851446  0.5060881053048234  1.0000
