data_image0
_chemical_formula_structural       BrC2NSZr2
_chemical_formula_sum              "Br1 C2 N1 S1 Zr2"
_cell_length_a       3.467499107103898
_cell_length_b       3.4674991070979995
_cell_length_c       26.58097274652645
_cell_angle_alpha    90.0
_cell_angle_beta     90.0
_cell_angle_gamma    120.00000000005627

_space_group_name_H-M_alt    "P 1"
_space_group_IT_number       1

loop_
  _space_group_symop_operation_xyz
  'x, y, z'

loop_
  _atom_site_type_symbol
  _atom_site_label
  _atom_site_symmetry_multiplicity
  _atom_site_fract_x
  _atom_site_fract_y
  _atom_site_fract_z
  _atom_site_occupancy
  Br  Br1       1.0  0.6666669847440474  0.3333329859851445  0.33858806018211285  1.0000
  C   C1        1.0  0.0  0.0  0.4579099196208025  1.0000
  C   C2        1.0  0.3333329854322145  0.6666669831836741  0.6028873330644253  1.0000
  N   N1        1.0  0.3333329854322145  0.6666669831836741  0.5557895455853561  1.0000
  S   S1        1.0  0.3333329854322145  0.6666669831836741  0.661411939817887  1.0000
  Zr  Zr1       1.0  0.3333329854322145  0.6666669831836741  0.4127919740129801  1.0000
  Zr  Zr2       1.0  0.6666669847440474  0.3333329859851445  0.5038300898001509  1.0000
