data_image0
_chemical_formula_structural       CHf2N2O2P
_chemical_formula_sum              "C1 Hf2 N2 O2 P1"
_cell_length_a       3.2852062526199144
_cell_length_b       3.285206252610747
_cell_length_c       27.719969637981183
_cell_angle_alpha    90.0
_cell_angle_beta     90.0
_cell_angle_gamma    120.0000000000923

_space_group_name_H-M_alt    "P 1"
_space_group_IT_number       1

loop_
  _space_group_symop_operation_xyz
  'x, y, z'

loop_
  _atom_site_type_symbol
  _atom_site_label
  _atom_site_symmetry_multiplicity
  _atom_site_fract_x
  _atom_site_fract_y
  _atom_site_fract_z
  _atom_site_occupancy
  C   C1        1.0  0.6666669847440474  0.3333329859851446  0.36750111278875214  1.0000
  Hf  Hf1       1.0  0.3333329854322145  0.6666669831836742  0.46582056173842945  1.0000
  Hf  Hf2       1.0  0.6666669847440474  0.3333329859851446  0.5521896650205299  1.0000
  N   N1        1.0  0.0  0.0  0.5047230458182339  1.0000
  N   N2        1.0  0.6666669847440474  0.3333329859851446  0.32467568029614413  1.0000
  O   O1        1.0  0.3333329854322145  0.6666669831836742  0.675324319703856  1.0000
  O   O2        1.0  0.6666669847440474  0.3333329859851446  0.41594358501045353  1.0000
  P   P1        1.0  0.3333329854322145  0.6666669831836742  0.6213768381469715  1.0000
