data_image0
_chemical_formula_structural       CHHf2N2O2
_chemical_formula_sum              "C1 H1 Hf2 N2 O2"
_cell_length_a       3.3079165269586954
_cell_length_b       3.3079165269586968
_cell_length_c       26.44792719587215
_cell_angle_alpha    90.0
_cell_angle_beta     90.0
_cell_angle_gamma    119.99999999999999

_space_group_name_H-M_alt    "P 1"
_space_group_IT_number       1

loop_
  _space_group_symop_operation_xyz
  'x, y, z'

loop_
  _atom_site_type_symbol
  _atom_site_label
  _atom_site_symmetry_multiplicity
  _atom_site_fract_x
  _atom_site_fract_y
  _atom_site_fract_z
  _atom_site_occupancy
  C   C1        1.0  0.6666669847440474  0.3333329859851446  0.38517727377459243  1.0000
  H   H1        1.0  0.3333329854322145  0.6666669831836742  0.6597086821456212  1.0000
  Hf  Hf1       1.0  0.3333329854322145  0.6666669831836742  0.4875462035970873  1.0000
  Hf  Hf2       1.0  0.6666669847440474  0.3333329859851446  0.5737098077740129  1.0000
  N   N1        1.0  0.0  0.0  0.5302985067590199  1.0000
  N   N2        1.0  0.6666669847440474  0.3333329859851446  0.3402913178543788  1.0000
  O   O1        1.0  0.3333329854322145  0.6666669831836742  0.622109365484457  1.0000
  O   O2        1.0  0.6666669847440474  0.3333329859851446  0.4358518068127655  1.0000
