data_image0
_chemical_formula_structural       C2N3SZr2
_chemical_formula_sum              "C2 N3 S1 Zr2"
_cell_length_a       3.4742867847223757
_cell_length_b       3.4742867847005985
_cell_length_c       27.52295499052354
_cell_angle_alpha    90.0
_cell_angle_beta     90.0
_cell_angle_gamma    120.00000000020736

_space_group_name_H-M_alt    "P 1"
_space_group_IT_number       1

loop_
  _space_group_symop_operation_xyz
  'x, y, z'

loop_
  _atom_site_type_symbol
  _atom_site_label
  _atom_site_symmetry_multiplicity
  _atom_site_fract_x
  _atom_site_fract_y
  _atom_site_fract_z
  _atom_site_occupancy
  C   C1        1.0  0.3333329854322146  0.6666669831836743  0.6291862939938381  1.0000
  C   C2        1.0  0.6666669847440474  0.3333329859851446  0.370269936221485  1.0000
  N   N1        1.0  0.0  0.0  0.5359888354628319  1.0000
  N   N2        1.0  0.3333329854322146  0.6666669831836743  0.6730002282422508  1.0000
  N   N3        1.0  0.6666669847440474  0.3333329859851446  0.326999771757749  1.0000
  S   S1        1.0  0.6666669847440474  0.3333329859851446  0.4314132303118787  1.0000
  Zr  Zr1       1.0  0.3333329854322146  0.6666669831836743  0.4923626229425592  1.0000
  Zr  Zr2       1.0  0.6666669847440474  0.3333329859851446  0.5762347115008329  1.0000
