data_image0
_chemical_formula_structural       H2NSc2
_chemical_formula_sum              "H2 N1 Sc2"
_cell_length_a       3.1972251802388985
_cell_length_b       3.1972251802376666
_cell_length_c       22.5103627547056
_cell_angle_alpha    90.0
_cell_angle_beta     90.0
_cell_angle_gamma    120.00000000001273

_space_group_name_H-M_alt    "P 1"
_space_group_IT_number       1

loop_
  _space_group_symop_operation_xyz
  'x, y, z'

loop_
  _atom_site_type_symbol
  _atom_site_label
  _atom_site_symmetry_multiplicity
  _atom_site_fract_x
  _atom_site_fract_y
  _atom_site_fract_z
  _atom_site_occupancy
  H   H1        1.0  0.3333329854322145  0.6666669831836742  0.6001841419406436  1.0000
  H   H2        1.0  0.6666669847440473  0.3333329859851446  0.3998158580593565  1.0000
  N   N1        1.0  0.0  0.0  0.5000000405970483  1.0000
  Sc  Sc1       1.0  0.3333329854322145  0.6666669831836742  0.44522691627638966  1.0000
  Sc  Sc2       1.0  0.6666669847440473  0.3333329859851446  0.5547730831176738  1.0000
