data_image0
_chemical_formula_structural       NO2Zr2
_chemical_formula_sum              "N1 O2 Zr2"
_cell_length_a       3.2841077401947687
_cell_length_b       3.2841077401663004
_cell_length_c       22.68813848446247
_cell_angle_alpha    90.0
_cell_angle_beta     90.0
_cell_angle_gamma    120.00000000028675

_space_group_name_H-M_alt    "P 1"
_space_group_IT_number       1

loop_
  _space_group_symop_operation_xyz
  'x, y, z'

loop_
  _atom_site_type_symbol
  _atom_site_label
  _atom_site_symmetry_multiplicity
  _atom_site_fract_x
  _atom_site_fract_y
  _atom_site_fract_z
  _atom_site_occupancy
  N   N1        1.0  0.0  0.0  0.5000000381759404  1.0000
  O   O1        1.0  0.33333298543221457  0.6666669831836742  0.6033169488028525  1.0000
  O   O2        1.0  0.6666669847440474  0.3333329859851446  0.3966830511971475  1.0000
  Zr  Zr1       1.0  0.33333298543221457  0.6666669831836742  0.4400459964573136  1.0000
  Zr  Zr2       1.0  0.6666669847440474  0.3333329859851446  0.5599540029728861  1.0000
