data_image0
_chemical_formula_structural       FHNOZr2
_chemical_formula_sum              "F1 H1 N1 O1 Zr2"
_cell_length_a       3.3669642724576194
_cell_length_b       3.36696427245373
_cell_length_c       23.953864214091634
_cell_angle_alpha    90.0
_cell_angle_beta     90.0
_cell_angle_gamma    120.00000000003821

_space_group_name_H-M_alt    "P 1"
_space_group_IT_number       1

loop_
  _space_group_symop_operation_xyz
  'x, y, z'

loop_
  _atom_site_type_symbol
  _atom_site_label
  _atom_site_symmetry_multiplicity
  _atom_site_fract_x
  _atom_site_fract_y
  _atom_site_fract_z
  _atom_site_occupancy
  F   F1        1.0  0.3333329854322144  0.6666669831836742  0.624277739927011  1.0000
  H   H1        1.0  0.6666669847440473  0.3333329859851446  0.375722260072989  1.0000
  N   N1        1.0  0.0  0.0  0.5216699467511419  1.0000
  O   O1        1.0  0.6666669847440473  0.3333329859851446  0.4170165006368723  1.0000
  Zr  Zr1       1.0  0.3333329854322144  0.6666669831836742  0.4721127597039717  1.0000
  Zr  Zr2       1.0  0.6666669847440473  0.3333329859851446  0.5691442402348785  1.0000
