data_image0
_chemical_formula_structural       C3N2OSc2
_chemical_formula_sum              "C3 N2 O1 Sc2"
_cell_length_a       3.38964426332364
_cell_length_b       3.3896442633261374
_cell_length_c       26.86135030048885
_cell_angle_alpha    90.0
_cell_angle_beta     90.0
_cell_angle_gamma    119.99999999997564

_space_group_name_H-M_alt    "P 1"
_space_group_IT_number       1

loop_
  _space_group_symop_operation_xyz
  'x, y, z'

loop_
  _atom_site_type_symbol
  _atom_site_label
  _atom_site_symmetry_multiplicity
  _atom_site_fract_x
  _atom_site_fract_y
  _atom_site_fract_z
  _atom_site_occupancy
  C   C1        1.0  0.0  0.0  0.5208411442346039  1.0000
  C   C2        1.0  0.3333329854322145  0.6666669831836742  0.620317169351745  1.0000
  C   C3        1.0  0.6666669847440474  0.3333329859851446  0.3793015115592411  1.0000
  N   N1        1.0  0.3333329854322145  0.6666669831836742  0.6649461066059585  1.0000
  N   N2        1.0  0.6666669847440474  0.3333329859851446  0.3350538933940417  1.0000
  O   O1        1.0  0.6666669847440474  0.3333329859851446  0.4290951005935939  1.0000
  Sc  Sc1       1.0  0.3333329854322145  0.6666669831836742  0.4742847952770127  1.0000
  Sc  Sc2       1.0  0.6666669847440474  0.3333329859851446  0.5671725935791713  1.0000
