data_image0
_chemical_formula_structural       CH2Zr2
_chemical_formula_sum              "C1 H2 Zr2"
_cell_length_a       3.3203242760353504
_cell_length_b       3.320324276032025
_cell_length_c       22.56694604306346
_cell_angle_alpha    90.0
_cell_angle_beta     90.0
_cell_angle_gamma    120.00000000003313

_space_group_name_H-M_alt    "P 1"
_space_group_IT_number       1

loop_
  _space_group_symop_operation_xyz
  'x, y, z'

loop_
  _atom_site_type_symbol
  _atom_site_label
  _atom_site_symmetry_multiplicity
  _atom_site_fract_x
  _atom_site_fract_y
  _atom_site_fract_z
  _atom_site_occupancy
  C   C1        1.0  0.0  0.0  0.5000000375482421  1.0000
  H   H1        1.0  0.3333329854322146  0.6666669831836742  0.6011866212279804  1.0000
  H   H2        1.0  0.6666669847440474  0.3333329859851446  0.3988133787720198  1.0000
  Zr  Zr1       1.0  0.3333329854322146  0.6666669831836742  0.4442906590806808  1.0000
  Zr  Zr2       1.0  0.6666669847440474  0.3333329859851446  0.5557093403588876  1.0000
