data_image0
_chemical_formula_structural       CHf2N2O2
_chemical_formula_sum              "C1 Hf2 N2 O2"
_cell_length_a       3.233653265109538
_cell_length_b       3.2336532651093193
_cell_length_c       25.45707170601978
_cell_angle_alpha    90.0
_cell_angle_beta     90.0
_cell_angle_gamma    120.00000000000223

_space_group_name_H-M_alt    "P 1"
_space_group_IT_number       1

loop_
  _space_group_symop_operation_xyz
  'x, y, z'

loop_
  _atom_site_type_symbol
  _atom_site_label
  _atom_site_symmetry_multiplicity
  _atom_site_fract_x
  _atom_site_fract_y
  _atom_site_fract_z
  _atom_site_occupancy
  C   C1        1.0  0.6666669847440476  0.33333298598514477  0.4001616019375518  1.0000
  Hf  Hf1       1.0  0.3333329854322145  0.6666669831836743  0.5082957403439977  1.0000
  Hf  Hf2       1.0  0.6666669847440476  0.33333298598514477  0.6080845632887933  1.0000
  N   N1        1.0  0.0  0.0  0.557651028184599  1.0000
  N   N2        1.0  0.6666669847440476  0.33333298598514477  0.3535363416473306  1.0000
  O   O1        1.0  0.3333329854322145  0.6666669831836743  0.6464636583526695  1.0000
  O   O2        1.0  0.6666669847440476  0.33333298598514477  0.4528906758670254  1.0000
