data_image0
_chemical_formula_structural       CHN2SY2
_chemical_formula_sum              "C1 H1 N2 S1 Y2"
_cell_length_a       3.54560369273796
_cell_length_b       3.545603692735354
_cell_length_c       25.892953167516026
_cell_angle_alpha    90.0
_cell_angle_beta     90.0
_cell_angle_gamma    120.00000000002431

_space_group_name_H-M_alt    "P 1"
_space_group_IT_number       1

loop_
  _space_group_symop_operation_xyz
  'x, y, z'

loop_
  _atom_site_type_symbol
  _atom_site_label
  _atom_site_symmetry_multiplicity
  _atom_site_fract_x
  _atom_site_fract_y
  _atom_site_fract_z
  _atom_site_occupancy
  C   C1        1.0  0.33333298543221457  0.6666669831836742  0.5922635243638805  1.0000
  H   H1        1.0  0.6666669847440475  0.3333329859851446  0.3475849178644844  1.0000
  N   N1        1.0  0.0  0.0  0.4392999223422751  1.0000
  N   N2        1.0  0.33333298543221457  0.6666669831836742  0.5440677583910069  1.0000
  S   S1        1.0  0.33333298543221457  0.6666669831836742  0.6524150821355154  1.0000
  Y   Y1        1.0  0.33333298543221457  0.6666669831836742  0.3870049990739985  1.0000
  Y   Y2        1.0  0.6666669847440475  0.3333329859851446  0.48999023259319174  1.0000
