data_image0
_chemical_formula_structural       C2NO2PZr2
_chemical_formula_sum              "C2 N1 O2 P1 Zr2"
_cell_length_a       3.3370513968474214
_cell_length_b       3.337051396840669
_cell_length_c       27.96026796397237
_cell_angle_alpha    90.0
_cell_angle_beta     90.0
_cell_angle_gamma    120.00000000006693

_space_group_name_H-M_alt    "P 1"
_space_group_IT_number       1

loop_
  _space_group_symop_operation_xyz
  'x, y, z'

loop_
  _atom_site_type_symbol
  _atom_site_label
  _atom_site_symmetry_multiplicity
  _atom_site_fract_x
  _atom_site_fract_y
  _atom_site_fract_z
  _atom_site_occupancy
  C   C1        1.0  0.0  0.0  0.5062892387408726  1.0000
  C   C2        1.0  0.6666669847440474  0.3333329859851446  0.36437617764362945  1.0000
  N   N1        1.0  0.6666669847440474  0.3333329859851446  0.3218853271219276  1.0000
  O   O1        1.0  0.33333298543221457  0.6666669831836742  0.6781146728780724  1.0000
  O   O2        1.0  0.6666669847440474  0.3333329859851446  0.4121914696604831  1.0000
  P   P1        1.0  0.33333298543221457  0.6666669831836742  0.6247642763852048  1.0000
  Zr  Zr1       1.0  0.33333298543221457  0.6666669831836742  0.4620656434661644  1.0000
  Zr  Zr2       1.0  0.6666669847440474  0.3333329859851446  0.5529722491186236  1.0000
