data_image0
_chemical_formula_structural       C2Hf2N3OS
_chemical_formula_sum              "C2 Hf2 N3 O1 S1"
_cell_length_a       3.3952023626635297
_cell_length_b       3.395202362657062
_cell_length_c       28.67007250358529
_cell_angle_alpha    90.0
_cell_angle_beta     90.0
_cell_angle_gamma    120.00000000006301

_space_group_name_H-M_alt    "P 1"
_space_group_IT_number       1

loop_
  _space_group_symop_operation_xyz
  'x, y, z'

loop_
  _atom_site_type_symbol
  _atom_site_label
  _atom_site_symmetry_multiplicity
  _atom_site_fract_x
  _atom_site_fract_y
  _atom_site_fract_z
  _atom_site_occupancy
  C   C1        1.0  0.3333329854322146  0.6666669831836743  0.6440714320788227  1.0000
  C   C2        1.0  0.6666669847440474  0.3333329859851446  0.3554348246970278  1.0000
  Hf  Hf1       1.0  0.3333329854322146  0.6666669831836743  0.4712595176958294  1.0000
  Hf  Hf2       1.0  0.6666669847440474  0.3333329859851446  0.5519664528251729  1.0000
  N   N1        1.0  0.0  0.0  0.5159098511018195  1.0000
  N   N2        1.0  0.3333329854322146  0.6666669831836743  0.6003984283142898  1.0000
  N   N3        1.0  0.6666669847440474  0.3333329859851446  0.3139161925340272  1.0000
  O   O1        1.0  0.3333329854322146  0.6666669831836743  0.6860838074659728  1.0000
  S   S1        1.0  0.6666669847440474  0.3333329859851446  0.4145483678395646  1.0000
