data_image0
_chemical_formula_structural       C2N3OSSc2
_chemical_formula_sum              "C2 N3 O1 S1 Sc2"
_cell_length_a       3.3275586532582846
_cell_length_b       3.327558653256015
_cell_length_c       28.29333750476147
_cell_angle_alpha    90.0
_cell_angle_beta     90.0
_cell_angle_gamma    120.00000000002257

_space_group_name_H-M_alt    "P 1"
_space_group_IT_number       1

loop_
  _space_group_symop_operation_xyz
  'x, y, z'

loop_
  _atom_site_type_symbol
  _atom_site_label
  _atom_site_symmetry_multiplicity
  _atom_site_fract_x
  _atom_site_fract_y
  _atom_site_fract_z
  _atom_site_occupancy
  C   C1        1.0  0.3333329854322145  0.6666669831836741  0.6393233371627335  1.0000
  C   C2        1.0  0.6666669847440474  0.3333329859851446  0.37294216058278584  1.0000
  N   N1        1.0  0.0  0.0  0.5061806478191105  1.0000
  N   N2        1.0  0.3333329854322145  0.6666669831836741  0.5953073348598978  1.0000
  N   N3        1.0  0.6666669847440474  0.3333329859851446  0.41723624276332333  1.0000
  O   O1        1.0  0.3333329854322145  0.6666669831836741  0.6819039111774852  1.0000
  S   S1        1.0  0.6666669847440474  0.3333329859851446  0.3180960888225149  1.0000
  Sc  Sc1       1.0  0.3333329854322145  0.6666669831836741  0.46206086238063865  1.0000
  Sc  Sc2       1.0  0.6666669847440474  0.3333329859851446  0.5479910551253996  1.0000
