data_image0
_chemical_formula_structural       C2ClNOSY2
_chemical_formula_sum              "C2 Cl1 N1 O1 S1 Y2"
_cell_length_a       3.7962192398726375
_cell_length_b       3.7962192398460797
_cell_length_c       27.045224672083304
_cell_angle_alpha    90.0
_cell_angle_beta     90.0
_cell_angle_gamma    120.00000000023144

_space_group_name_H-M_alt    "P 1"
_space_group_IT_number       1

loop_
  _space_group_symop_operation_xyz
  'x, y, z'

loop_
  _atom_site_type_symbol
  _atom_site_label
  _atom_site_symmetry_multiplicity
  _atom_site_fract_x
  _atom_site_fract_y
  _atom_site_fract_z
  _atom_site_occupancy
  C   C1        1.0  0.0  0.0  0.5398171655869456  1.0000
  C   C2        1.0  0.6666669847440474  0.3333329859851445  0.39055473560032367  1.0000
  Cl  Cl1       1.0  0.3333329854322145  0.6666669831836742  0.6672240623206946  1.0000
  N   N1        1.0  0.6666669847440474  0.3333329859851445  0.43668239043341905  1.0000
  O   O1        1.0  0.3333329854322145  0.6666669831836742  0.5635760947570573  1.0000
  S   S1        1.0  0.6666669847440474  0.3333329859851445  0.33277593767930513  1.0000
  Y   Y1        1.0  0.3333329854322145  0.6666669831836742  0.48677689622616116  1.0000
  Y   Y2        1.0  0.6666669847440474  0.3333329859851445  0.5981154366146422  1.0000
