data_image0
_chemical_formula_structural       ClHNOZr2
_chemical_formula_sum              "Cl1 H1 N1 O1 Zr2"
_cell_length_a       3.3894807030617886
_cell_length_b       3.3894807030555327
_cell_length_c       24.42369022491566
_cell_angle_alpha    90.0
_cell_angle_beta     90.0
_cell_angle_gamma    120.00000000006106

_space_group_name_H-M_alt    "P 1"
_space_group_IT_number       1

loop_
  _space_group_symop_operation_xyz
  'x, y, z'

loop_
  _atom_site_type_symbol
  _atom_site_label
  _atom_site_symmetry_multiplicity
  _atom_site_fract_x
  _atom_site_fract_y
  _atom_site_fract_z
  _atom_site_occupancy
  Cl  Cl1       1.0  0.3333329854322145  0.6666669831836742  0.6315053164726634  1.0000
  H   H1        1.0  0.6666669847440474  0.3333329859851446  0.3684946835273367  1.0000
  N   N1        1.0  0.0  0.0  0.5092885633531319  1.0000
  O   O1        1.0  0.6666669847440474  0.3333329859851446  0.409002129140469  1.0000
  Zr  Zr1       1.0  0.3333329854322145  0.6666669831836742  0.46259934868776176  1.0000
  Zr  Zr2       1.0  0.6666669847440474  0.3333329859851446  0.5576450925323735  1.0000
