data_image0
_chemical_formula_structural       H2Hf2NO2
_chemical_formula_sum              "H2 Hf2 N1 O2"
_cell_length_a       3.2603087189268813
_cell_length_b       3.2603087189218685
_cell_length_c       24.94819304282713
_cell_angle_alpha    90.0
_cell_angle_beta     90.0
_cell_angle_gamma    120.00000000005086

_space_group_name_H-M_alt    "P 1"
_space_group_IT_number       1

loop_
  _space_group_symop_operation_xyz
  'x, y, z'

loop_
  _atom_site_type_symbol
  _atom_site_label
  _atom_site_symmetry_multiplicity
  _atom_site_fract_x
  _atom_site_fract_y
  _atom_site_fract_z
  _atom_site_occupancy
  H   H1        1.0  0.3333329854322145  0.6666669831836742  0.6392524306449683  1.0000
  H   H2        1.0  0.6666669847440474  0.3333329859851446  0.3607475693550318  1.0000
  Hf  Hf1       1.0  0.3333329854322145  0.6666669831836742  0.4527948360184018  1.0000
  Hf  Hf2       1.0  0.6666669847440474  0.3333329859851446  0.5472051634558324  1.0000
  N   N1        1.0  0.0  0.0  0.5000000352262903  1.0000
  O   O1        1.0  0.3333329854322145  0.6666669831836742  0.5993085627186077  1.0000
  O   O2        1.0  0.6666669847440474  0.3333329859851446  0.4006914372814016  1.0000
