data_image0
_chemical_formula_structural       CClN2O2Zr2
_chemical_formula_sum              "C1 Cl1 N2 O2 Zr2"
_cell_length_a       3.2794949999875884
_cell_length_b       3.279494999987614
_cell_length_c       28.97801161075878
_cell_angle_alpha    90.0
_cell_angle_beta     90.0
_cell_angle_gamma    119.99999999999973

_space_group_name_H-M_alt    "P 1"
_space_group_IT_number       1

loop_
  _space_group_symop_operation_xyz
  'x, y, z'

loop_
  _atom_site_type_symbol
  _atom_site_label
  _atom_site_symmetry_multiplicity
  _atom_site_fract_x
  _atom_site_fract_y
  _atom_site_fract_z
  _atom_site_occupancy
  C   C1        1.0  0.6666669847440474  0.3333329859851446  0.3521359270668621  1.0000
  Cl  Cl1       1.0  0.3333329854322145  0.6666669831836741  0.6894196841077069  1.0000
  N   N1        1.0  0.0  0.0  0.4911367790488221  1.0000
  N   N2        1.0  0.6666669847440474  0.3333329859851446  0.3952295204349157  1.0000
  O   O1        1.0  0.3333329854322145  0.6666669831836741  0.5691397885009146  1.0000
  O   O2        1.0  0.6666669847440474  0.3333329859851446  0.3105803158922931  1.0000
  Zr  Zr1       1.0  0.3333329854322145  0.6666669831836741  0.445511656303025  1.0000
  Zr  Zr2       1.0  0.6666669847440474  0.3333329859851446  0.5369200370975675  1.0000
