data_image0
_chemical_formula_structural       C3N2OTi2
_chemical_formula_sum              "C3 N2 O1 Ti2"
_cell_length_a       3.171393942770487
_cell_length_b       3.171393942766705
_cell_length_c       26.660333060619653
_cell_angle_alpha    90.0
_cell_angle_beta     90.0
_cell_angle_gamma    120.00000000003945

_space_group_name_H-M_alt    "P 1"
_space_group_IT_number       1

loop_
  _space_group_symop_operation_xyz
  'x, y, z'

loop_
  _atom_site_type_symbol
  _atom_site_label
  _atom_site_symmetry_multiplicity
  _atom_site_fract_x
  _atom_site_fract_y
  _atom_site_fract_z
  _atom_site_occupancy
  C   C1        1.0  0.0  0.0  0.5219108796078127  1.0000
  C   C2        1.0  0.33333298543221457  0.6666669831836742  0.6172678795453793  1.0000
  C   C3        1.0  0.6666669847440474  0.3333329859851446  0.38214601048206503  1.0000
  N   N1        1.0  0.33333298543221457  0.6666669831836742  0.6624198212551958  1.0000
  N   N2        1.0  0.6666669847440474  0.3333329859851446  0.33758017874480434  1.0000
  O   O1        1.0  0.6666669847440474  0.3333329859851446  0.4322393906369448  1.0000
  Ti  Ti1       1.0  0.33333298543221457  0.6666669831836742  0.48054345022435746  1.0000
  Ti  Ti2       1.0  0.6666669847440474  0.3333329859851446  0.5648413131815094  1.0000
