data_image0
_chemical_formula_structural       C2FNOZr2
_chemical_formula_sum              "C2 F1 N1 O1 Zr2"
_cell_length_a       3.386103356458292
_cell_length_b       3.3861033564611778
_cell_length_c       25.646061761500274
_cell_angle_alpha    90.0
_cell_angle_beta     90.0
_cell_angle_gamma    119.99999999997182

_space_group_name_H-M_alt    "P 1"
_space_group_IT_number       1

loop_
  _space_group_symop_operation_xyz
  'x, y, z'

loop_
  _atom_site_type_symbol
  _atom_site_label
  _atom_site_symmetry_multiplicity
  _atom_site_fract_x
  _atom_site_fract_y
  _atom_site_fract_z
  _atom_site_occupancy
  C   C1        1.0  0.0  0.0  0.551280491279746  1.0000
  C   C2        1.0  0.6666669847440474  0.3333329859851446  0.39725808200820834  1.0000
  F   F1        1.0  0.3333329854322145  0.6666669831836742  0.6490689259155279  1.0000
  N   N1        1.0  0.6666669847440474  0.3333329859851446  0.3509310740844721  1.0000
  O   O1        1.0  0.6666669847440474  0.3333329859851446  0.4493101573161196  1.0000
  Zr  Zr1       1.0  0.3333329854322145  0.6666669831836742  0.5034308527620246  1.0000
  Zr  Zr2       1.0  0.6666669847440474  0.3333329859851446  0.5982955018263019  1.0000
