data_image0
_chemical_formula_structural       CN2OSZr2
_chemical_formula_sum              "C1 N2 O1 S1 Zr2"
_cell_length_a       3.3562661580561186
_cell_length_b       3.35626615805
_cell_length_c       26.161739746457776
_cell_angle_alpha    90.0
_cell_angle_beta     90.0
_cell_angle_gamma    120.00000000006033

_space_group_name_H-M_alt    "P 1"
_space_group_IT_number       1

loop_
  _space_group_symop_operation_xyz
  'x, y, z'

loop_
  _atom_site_type_symbol
  _atom_site_label
  _atom_site_symmetry_multiplicity
  _atom_site_fract_x
  _atom_site_fract_y
  _atom_site_fract_z
  _atom_site_occupancy
  C   C1        1.0  0.33333298543221457  0.6666669831836742  0.6104736840603331  1.0000
  N   N1        1.0  0.0  0.0  0.42787258907080394  1.0000
  N   N2        1.0  0.33333298543221457  0.6666669831836742  0.6559861810712121  1.0000
  O   O1        1.0  0.6666669847440472  0.3333329859851446  0.34401381892878785  1.0000
  S   S1        1.0  0.33333298543221457  0.6666669831836742  0.5455934845342914  1.0000
  Zr  Zr1       1.0  0.33333298543221457  0.6666669831836742  0.3800220040503204  1.0000
  Zr  Zr2       1.0  0.6666669847440472  0.3333329859851446  0.4812570486285002  1.0000
