data_image0
_chemical_formula_structural       C3Hf2N2O2
_chemical_formula_sum              "C3 Hf2 N2 O2"
_cell_length_a       3.327086432568238
_cell_length_b       3.3270864325731253
_cell_length_c       28.16754493954663
_cell_angle_alpha    90.0
_cell_angle_beta     90.0
_cell_angle_gamma    119.99999999995141

_space_group_name_H-M_alt    "P 1"
_space_group_IT_number       1

loop_
  _space_group_symop_operation_xyz
  'x, y, z'

loop_
  _atom_site_type_symbol
  _atom_site_label
  _atom_site_symmetry_multiplicity
  _atom_site_fract_x
  _atom_site_fract_y
  _atom_site_fract_z
  _atom_site_occupancy
  C   C1        1.0  0.0  0.0  0.5000000299603093  1.0000
  C   C2        1.0  0.3333329854322145  0.6666669831836741  0.6377108807246432  1.0000
  C   C3        1.0  0.6666669847440474  0.33333298598514444  0.3622891188281955  1.0000
  Hf  Hf1       1.0  0.3333329854322145  0.6666669831836741  0.4574148355544581  1.0000
  Hf  Hf2       1.0  0.6666669847440474  0.33333298598514444  0.5425851639983728  1.0000
  N   N1        1.0  0.3333329854322145  0.6666669831836741  0.5933545781393867  1.0000
  N   N2        1.0  0.6666669847440474  0.33333298598514444  0.40664542186062147  1.0000
  O   O1        1.0  0.3333329854322145  0.6666669831836741  0.6804833357214533  1.0000
  O   O2        1.0  0.6666669847440474  0.33333298598514444  0.3195166642785468  1.0000
