data_image0
_chemical_formula_structural       C3N2OSSc2
_chemical_formula_sum              "C3 N2 O1 S1 Sc2"
_cell_length_a       3.4693238321051143
_cell_length_b       3.4693238320979
_cell_length_c       28.710845010118497
_cell_angle_alpha    90.0
_cell_angle_beta     90.0
_cell_angle_gamma    120.0000000000688

_space_group_name_H-M_alt    "P 1"
_space_group_IT_number       1

loop_
  _space_group_symop_operation_xyz
  'x, y, z'

loop_
  _atom_site_type_symbol
  _atom_site_label
  _atom_site_symmetry_multiplicity
  _atom_site_fract_x
  _atom_site_fract_y
  _atom_site_fract_z
  _atom_site_occupancy
  C   C1        1.0  0.0  0.0  0.5127407481369493  1.0000
  C   C2        1.0  0.3333329854322146  0.6666669831836742  0.6445793213234867  1.0000
  C   C3        1.0  0.6666669847440475  0.3333329859851446  0.35493370039661865  1.0000
  N   N1        1.0  0.3333329854322146  0.6666669831836742  0.6011049860070115  1.0000
  N   N2        1.0  0.6666669847440475  0.3333329859851446  0.3134703975737443  1.0000
  O   O1        1.0  0.3333329854322146  0.6666669831836742  0.6865296024262557  1.0000
  S   S1        1.0  0.6666669847440475  0.3333329859851446  0.4131342914224975  1.0000
  Sc  Sc1       1.0  0.3333329854322146  0.6666669831836742  0.4704135195402202  1.0000
  Sc  Sc2       1.0  0.6666669847440475  0.3333329859851446  0.5558870141046814  1.0000
