data_image0
_chemical_formula_structural       CFOSc2
_chemical_formula_sum              "C1 F1 O1 Sc2"
_cell_length_a       3.2520130450679385
_cell_length_b       3.2520130450643085
_cell_length_c       32.95976224620765
_cell_angle_alpha    90.0
_cell_angle_beta     90.0
_cell_angle_gamma    120.00000000003693

_space_group_name_H-M_alt    "P 1"
_space_group_IT_number       1

loop_
  _space_group_symop_operation_xyz
  'x, y, z'

loop_
  _atom_site_type_symbol
  _atom_site_label
  _atom_site_symmetry_multiplicity
  _atom_site_fract_x
  _atom_site_fract_y
  _atom_site_fract_z
  _atom_site_occupancy
  C   C1        1.0  0.0  0.0  0.5004247963748315  1.0000
  F   F1        1.0  0.6666669847440474  0.3333329859851446  0.426575390985198  1.0000
  O   O1        1.0  0.3333329854322145  0.6666669831836742  0.5739936072950114  1.0000
  Sc  Sc1       1.0  0.3333329854322145  0.6666669831836742  0.461784330999097  1.0000
  Sc  Sc2       1.0  0.6666669847440474  0.3333329859851446  0.5513936977551894  1.0000
