data_image0
_chemical_formula_structural       BrCN2Y2
_chemical_formula_sum              "Br1 C1 N2 Y2"
_cell_length_a       3.6376016412359786
_cell_length_b       3.637601641248311
_cell_length_c       25.26297831252322
_cell_angle_alpha    90.0
_cell_angle_beta     90.0
_cell_angle_gamma    119.99999999988786

_space_group_name_H-M_alt    "P 1"
_space_group_IT_number       1

loop_
  _space_group_symop_operation_xyz
  'x, y, z'

loop_
  _atom_site_type_symbol
  _atom_site_label
  _atom_site_symmetry_multiplicity
  _atom_site_fract_x
  _atom_site_fract_y
  _atom_site_fract_z
  _atom_site_occupancy
  Br  Br1       1.0  0.6666669847440474  0.3333329859851446  0.3562525324078108  1.0000
  C   C1        1.0  0.3333329854322145  0.6666669831836742  0.5962223064498313  1.0000
  N   N1        1.0  0.0  0.0  0.485108509641167  1.0000
  N   N2        1.0  0.3333329854322145  0.6666669831836742  0.6437474675921891  1.0000
  Y   Y1        1.0  0.3333329854322145  0.6666669831836742  0.434072877903973  1.0000
  Y   Y2        1.0  0.6666669847440474  0.3333329859851446  0.5377994081213578  1.0000
