data_image0
_chemical_formula_structural       BrC2NY2
_chemical_formula_sum              "Br1 C2 N1 Y2"
_cell_length_a       3.7424057540764593
_cell_length_b       3.742405754113332
_cell_length_c       25.286605093529925
_cell_angle_alpha    90.0
_cell_angle_beta     90.0
_cell_angle_gamma    119.99999999967407

_space_group_name_H-M_alt    "P 1"
_space_group_IT_number       1

loop_
  _space_group_symop_operation_xyz
  'x, y, z'

loop_
  _atom_site_type_symbol
  _atom_site_label
  _atom_site_symmetry_multiplicity
  _atom_site_fract_x
  _atom_site_fract_y
  _atom_site_fract_z
  _atom_site_occupancy
  Br  Br1       1.0  0.6666669847440474  0.3333329859851446  0.35591966445123263  1.0000
  C   C1        1.0  0.0  0.0  0.4859678515752641  1.0000
  C   C2        1.0  0.3333329854322146  0.6666669831836742  0.5966257770519422  1.0000
  N   N1        1.0  0.3333329854322146  0.6666669831836742  0.6440803355487674  1.0000
  Y   Y1        1.0  0.3333329854322146  0.6666669831836742  0.4328399158323054  1.0000
  Y   Y2        1.0  0.6666669847440474  0.3333329859851446  0.539373074827904  1.0000
