data_image0
_chemical_formula_structural       N3O2Sc2
_chemical_formula_sum              "N3 O2 Sc2"
_cell_length_a       3.283889155928358
_cell_length_b       3.2838891559229575
_cell_length_c       25.539849842914542
_cell_angle_alpha    90.0
_cell_angle_beta     90.0
_cell_angle_gamma    120.00000000005441

_space_group_name_H-M_alt    "P 1"
_space_group_IT_number       1

loop_
  _space_group_symop_operation_xyz
  'x, y, z'

loop_
  _atom_site_type_symbol
  _atom_site_label
  _atom_site_symmetry_multiplicity
  _atom_site_fract_x
  _atom_site_fract_y
  _atom_site_fract_z
  _atom_site_occupancy
  N   N1        1.0  0.0  0.0  0.5000000339178318  1.0000
  N   N2        1.0  0.3333329854322146  0.6666669831836742  0.5966588541200446  1.0000
  N   N3        1.0  0.6666669847440474  0.3333329859851446  0.40334114587995545  1.0000
  O   O1        1.0  0.3333329854322146  0.6666669831836742  0.6476095178571752  1.0000
  O   O2        1.0  0.6666669847440474  0.3333329859851446  0.3523904821428247  1.0000
  Sc  Sc1       1.0  0.3333329854322146  0.6666669831836742  0.449638424888012  1.0000
  Sc  Sc2       1.0  0.6666669847440474  0.3333329859851446  0.5503615746057426  1.0000
