data_image0
_chemical_formula_structural       CClN2OTi2
_chemical_formula_sum              "C1 Cl1 N2 O1 Ti2"
_cell_length_a       3.073953281690741
_cell_length_b       3.0739532816907444
_cell_length_c       29.2933040021967
_cell_angle_alpha    90.0
_cell_angle_beta     90.0
_cell_angle_gamma    119.99999999999997

_space_group_name_H-M_alt    "P 1"
_space_group_IT_number       1

loop_
  _space_group_symop_operation_xyz
  'x, y, z'

loop_
  _atom_site_type_symbol
  _atom_site_label
  _atom_site_symmetry_multiplicity
  _atom_site_fract_x
  _atom_site_fract_y
  _atom_site_fract_z
  _atom_site_occupancy
  C   C1        1.0  0.3333329854322145  0.6666669831836742  0.6516112580619606  1.0000
  Cl  Cl1       1.0  0.6666669847440474  0.3333329859851446  0.3072374491906101  1.0000
  N   N1        1.0  0.0  0.0  0.5638156451414525  1.0000
  N   N2        1.0  0.3333329854322145  0.6666669831836742  0.6927625508093901  1.0000
  O   O1        1.0  0.6666669847440474  0.3333329859851446  0.49017356487014463  1.0000
  Ti  Ti1       1.0  0.3333329854322145  0.6666669831836742  0.5209939501782774  1.0000
  Ti  Ti2       1.0  0.6666669847440474  0.3333329859851446  0.6035232329233763  1.0000
