data_image0
_chemical_formula_structural       ClHNO2Sc2
_chemical_formula_sum              "Cl1 H1 N1 O2 Sc2"
_cell_length_a       3.2506163811193987
_cell_length_b       3.2506163811171893
_cell_length_c       27.906388004522572
_cell_angle_alpha    90.0
_cell_angle_beta     90.0
_cell_angle_gamma    120.00000000002248

_space_group_name_H-M_alt    "P 1"
_space_group_IT_number       1

loop_
  _space_group_symop_operation_xyz
  'x, y, z'

loop_
  _atom_site_type_symbol
  _atom_site_label
  _atom_site_symmetry_multiplicity
  _atom_site_fract_x
  _atom_site_fract_y
  _atom_site_fract_z
  _atom_site_occupancy
  Cl  Cl1       1.0  0.3333329854322145  0.6666669831836742  0.6774931962337283  1.0000
  H   H1        1.0  0.6666669847440474  0.3333329859851446  0.3225068037662717  1.0000
  N   N1        1.0  0.0  0.0  0.4409203106418471  1.0000
  O   O1        1.0  0.3333329854322145  0.6666669831836742  0.5240465098034515  1.0000
  O   O2        1.0  0.6666669847440474  0.3333329859851446  0.3576701555514264  1.0000
  Sc  Sc1       1.0  0.3333329854322145  0.6666669831836742  0.4034593477621459  1.0000
  Sc  Sc2       1.0  0.6666669847440474  0.3333329859851446  0.4984818861326029  1.0000
