data_image0
_chemical_formula_structural       C2HNOZr2
_chemical_formula_sum              "C2 H1 N1 O1 Zr2"
_cell_length_a       3.3680028850144104
_cell_length_b       3.3680028850123813
_cell_length_c       25.52672613113279
_cell_angle_alpha    90.0
_cell_angle_beta     90.0
_cell_angle_gamma    120.00000000001994

_space_group_name_H-M_alt    "P 1"
_space_group_IT_number       1

loop_
  _space_group_symop_operation_xyz
  'x, y, z'

loop_
  _atom_site_type_symbol
  _atom_site_label
  _atom_site_symmetry_multiplicity
  _atom_site_fract_x
  _atom_site_fract_y
  _atom_site_fract_z
  _atom_site_occupancy
  C   C1        1.0  0.0  0.0  0.4916986695122727  1.0000
  C   C2        1.0  0.3333329854322145  0.6666669831836742  0.6002476889255255  1.0000
  H   H1        1.0  0.6666669847440475  0.3333329859851446  0.3525716519136177  1.0000
  N   N1        1.0  0.3333329854322145  0.6666669831836742  0.6474283480863823  1.0000
  O   O1        1.0  0.6666669847440475  0.3333329859851446  0.3912134802347833  1.0000
  Zr  Zr1       1.0  0.3333329854322145  0.6666669831836742  0.4439099671596199  1.0000
  Zr  Zr2       1.0  0.6666669847440475  0.3333329859851446  0.5415324674165405  1.0000
