data_image0
_chemical_formula_structural       ClHNZr2
_chemical_formula_sum              "Cl1 H1 N1 Zr2"
_cell_length_a       3.380422464532575
_cell_length_b       3.380422464527594
_cell_length_c       23.143369668529264
_cell_angle_alpha    90.0
_cell_angle_beta     90.0
_cell_angle_gamma    120.00000000004874

_space_group_name_H-M_alt    "P 1"
_space_group_IT_number       1

loop_
  _space_group_symop_operation_xyz
  'x, y, z'

loop_
  _atom_site_type_symbol
  _atom_site_label
  _atom_site_symmetry_multiplicity
  _atom_site_fract_x
  _atom_site_fract_y
  _atom_site_fract_z
  _atom_site_occupancy
  Cl  Cl1       1.0  0.3333329854322146  0.6666669831836742  0.6111197233202239  1.0000
  H   H1        1.0  0.6666669847440476  0.3333329859851446  0.3888802766797761  1.0000
  N   N1        1.0  0.0  0.0  0.482636920023589  1.0000
  Zr  Zr1       1.0  0.3333329854322146  0.6666669831836742  0.4323013221243114  1.0000
  Zr  Zr2       1.0  0.6666669847440476  0.3333329859851446  0.5326133931071182  1.0000
