data_image0
_chemical_formula_structural       BrHHf2N
_chemical_formula_sum              "Br1 H1 Hf2 N1"
_cell_length_a       3.356839802934024
_cell_length_b       3.35683980292868
_cell_length_c       23.202752039678767
_cell_angle_alpha    90.0
_cell_angle_beta     90.0
_cell_angle_gamma    120.00000000005268

_space_group_name_H-M_alt    "P 1"
_space_group_IT_number       1

loop_
  _space_group_symop_operation_xyz
  'x, y, z'

loop_
  _atom_site_type_symbol
  _atom_site_label
  _atom_site_symmetry_multiplicity
  _atom_site_fract_x
  _atom_site_fract_y
  _atom_site_fract_z
  _atom_site_occupancy
  Br  Br1       1.0  0.3333329854322145  0.6666669831836742  0.6121149773695292  1.0000
  H   H1        1.0  0.6666669847440474  0.3333329859851446  0.38788502263047087  1.0000
  Hf  Hf1       1.0  0.3333329854322145  0.6666669831836742  0.42970802428941407  1.0000
  Hf  Hf2       1.0  0.6666669847440474  0.3333329859851446  0.5271487691062675  1.0000
  N   N1        1.0  0.0  0.0  0.47875943682387967  1.0000
