data_image0
_chemical_formula_structural       C2N3O2Ti2
_chemical_formula_sum              "C2 N3 O2 Ti2"
_cell_length_a       3.176521709671208
_cell_length_b       3.176521709674031
_cell_length_c       27.673106342883344
_cell_angle_alpha    90.0
_cell_angle_beta     90.0
_cell_angle_gamma    119.9999999999706

_space_group_name_H-M_alt    "P 1"
_space_group_IT_number       1

loop_
  _space_group_symop_operation_xyz
  'x, y, z'

loop_
  _atom_site_type_symbol
  _atom_site_label
  _atom_site_symmetry_multiplicity
  _atom_site_fract_x
  _atom_site_fract_y
  _atom_site_fract_z
  _atom_site_occupancy
  C   C1        1.0  0.3333329854322146  0.6666669831836743  0.6318577353085177  1.0000
  C   C2        1.0  0.6666669847440474  0.3333329859851447  0.3681422641921526  1.0000
  N   N1        1.0  0.0  0.0  0.5000000334550615  1.0000
  N   N2        1.0  0.3333329854322146  0.6666669831836743  0.6747744944681817  1.0000
  N   N3        1.0  0.6666669847440474  0.3333329859851447  0.3252255055318182  1.0000
  O   O1        1.0  0.3333329854322146  0.6666669831836743  0.5835522361884026  1.0000
  O   O2        1.0  0.6666669847440474  0.3333329859851447  0.41644776381159737  1.0000
  Ti  Ti1       1.0  0.3333329854322146  0.6666669831836743  0.4625930239624165  1.0000
  Ti  Ti2       1.0  0.6666669847440474  0.3333329859851447  0.5374069755382452  1.0000
