data_image0
_chemical_formula_structural       C2ClNOSTi2
_chemical_formula_sum              "C2 Cl1 N1 O1 S1 Ti2"
_cell_length_a       3.1222069323085857
_cell_length_b       3.1222069323085186
_cell_length_c       29.934432135318943
_cell_angle_alpha    90.0
_cell_angle_beta     90.0
_cell_angle_gamma    120.00000000000072

_space_group_name_H-M_alt    "P 1"
_space_group_IT_number       1

loop_
  _space_group_symop_operation_xyz
  'x, y, z'

loop_
  _atom_site_type_symbol
  _atom_site_label
  _atom_site_symmetry_multiplicity
  _atom_site_fract_x
  _atom_site_fract_y
  _atom_site_fract_z
  _atom_site_occupancy
  C   C1        1.0  0.0  0.0  0.47549083939708137  1.0000
  C   C2        1.0  0.6666669847440472  0.3333329859851446  0.3523417615771503  1.0000
  Cl  Cl1       1.0  0.3333329854322145  0.6666669831836742  0.6993428851659722  1.0000
  N   N1        1.0  0.6666669847440472  0.3333329859851446  0.39446173180742106  1.0000
  O   O1        1.0  0.3333329854322145  0.6666669831836742  0.5489305288384121  1.0000
  S   S1        1.0  0.6666669847440472  0.3333329859851446  0.3006571148340278  1.0000
  Ti  Ti1       1.0  0.3333329854322145  0.6666669831836742  0.43663603454140404  1.0000
  Ti  Ti2       1.0  0.6666669847440472  0.3333329859851446  0.5199150557794561  1.0000
