data_image0
_chemical_formula_structural       C3N2S2Sc2
_chemical_formula_sum              "C3 N2 S2 Sc2"
_cell_length_a       3.5042212540388578
_cell_length_b       3.5042212540391184
_cell_length_c       29.01294974265546
_cell_angle_alpha    90.0
_cell_angle_beta     90.0
_cell_angle_gamma    119.99999999999754

_space_group_name_H-M_alt    "P 1"
_space_group_IT_number       1

loop_
  _space_group_symop_operation_xyz
  'x, y, z'

loop_
  _atom_site_type_symbol
  _atom_site_label
  _atom_site_symmetry_multiplicity
  _atom_site_fract_x
  _atom_site_fract_y
  _atom_site_fract_z
  _atom_site_occupancy
  C   C1        1.0  0.0  0.0  0.5068065340296961  1.0000
  C   C2        1.0  0.3333329854322145  0.6666669831836742  0.636137169848379  1.0000
  C   C3        1.0  0.6666669847440474  0.3333329859851447  0.3512316851216555  1.0000
  N   N1        1.0  0.3333329854322145  0.6666669831836742  0.5930919733262808  1.0000
  N   N2        1.0  0.6666669847440474  0.3333329859851447  0.3102063071776534  1.0000
  S   S1        1.0  0.3333329854322145  0.6666669831836742  0.6897936928223466  1.0000
  S   S2        1.0  0.6666669847440474  0.3333329859851447  0.4088602111614889  1.0000
  Sc  Sc1       1.0  0.3333329854322145  0.6666669831836742  0.4652579170131318  1.0000
  Sc  Sc2       1.0  0.6666669847440474  0.3333329859851447  0.5495288660147666  1.0000
