data_image0
_chemical_formula_structural       FN2OZr2
_chemical_formula_sum              "F1 N2 O1 Zr2"
_cell_length_a       3.3649561724409063
_cell_length_b       3.3649561724393675
_cell_length_c       24.28522920120132
_cell_angle_alpha    90.0
_cell_angle_beta     90.0
_cell_angle_gamma    120.00000000001513

_space_group_name_H-M_alt    "P 1"
_space_group_IT_number       1

loop_
  _space_group_symop_operation_xyz
  'x, y, z'

loop_
  _atom_site_type_symbol
  _atom_site_label
  _atom_site_symmetry_multiplicity
  _atom_site_fract_x
  _atom_site_fract_y
  _atom_site_fract_z
  _atom_site_occupancy
  F   F1        1.0  0.6666669847440474  0.3333329859851446  0.3705956375966506  1.0000
  N   N1        1.0  0.0  0.0  0.4708595553799452  1.0000
  N   N2        1.0  0.3333329854322145  0.6666669831836742  0.5752677526023976  1.0000
  O   O1        1.0  0.3333329854322145  0.6666669831836742  0.6294043624033493  1.0000
  Zr  Zr1       1.0  0.3333329854322145  0.6666669831836742  0.42531460515631997  1.0000
  Zr  Zr2       1.0  0.6666669847440474  0.3333329859851446  0.5248719330016854  1.0000
