data_image0
_chemical_formula_structural       CHOTi2
_chemical_formula_sum              "C1 H1 O1 Ti2"
_cell_length_a       3.067058899349895
_cell_length_b       3.0670588993488175
_cell_length_c       22.36399113839488
_cell_angle_alpha    90.0
_cell_angle_beta     90.0
_cell_angle_gamma    120.00000000001162

_space_group_name_H-M_alt    "P 1"
_space_group_IT_number       1

loop_
  _space_group_symop_operation_xyz
  'x, y, z'

loop_
  _atom_site_type_symbol
  _atom_site_label
  _atom_site_symmetry_multiplicity
  _atom_site_fract_x
  _atom_site_fract_y
  _atom_site_fract_z
  _atom_site_occupancy
  C   C1        1.0  0.0  0.0  0.496934613990876  1.0000
  H   H1        1.0  0.6666669847440472  0.3333329859851446  0.4024326402342669  1.0000
  O   O1        1.0  0.3333329854322145  0.6666669831836742  0.597567359765733  1.0000
  Ti  Ti1       1.0  0.3333329854322145  0.6666669831836742  0.44629421457456264  1.0000
  Ti  Ti2       1.0  0.6666669847440472  0.3333329859851446  0.5569667419507591  1.0000
