data_image0
_chemical_formula_structural       C2Hf2NO
_chemical_formula_sum              "C2 Hf2 N1 O1"
_cell_length_a       3.2877043379248554
_cell_length_b       3.287704337923432
_cell_length_c       24.256668641901346
_cell_angle_alpha    90.0
_cell_angle_beta     90.0
_cell_angle_gamma    120.00000000001431

_space_group_name_H-M_alt    "P 1"
_space_group_IT_number       1

loop_
  _space_group_symop_operation_xyz
  'x, y, z'

loop_
  _atom_site_type_symbol
  _atom_site_label
  _atom_site_symmetry_multiplicity
  _atom_site_fract_x
  _atom_site_fract_y
  _atom_site_fract_z
  _atom_site_occupancy
  C   C1        1.0  0.0  0.0  0.46705765071207334  1.0000
  C   C2        1.0  0.33333298543221423  0.6666669831836741  0.579088491405083  1.0000
  Hf  Hf1       1.0  0.33333298543221423  0.6666669831836741  0.4097035966359377  1.0000
  Hf  Hf2       1.0  0.6666669847440474  0.3333329859851446  0.5190420521773877  1.0000
  N   N1        1.0  0.33333298543221423  0.6666669831836741  0.6289680115243336  1.0000
  O   O1        1.0  0.6666669847440474  0.3333329859851446  0.3710319884756664  1.0000
