data_image0
_chemical_formula_structural       C2FNOSc2
_chemical_formula_sum              "C2 F1 N1 O1 Sc2"
_cell_length_a       3.3654985620328444
_cell_length_b       3.36549856203224
_cell_length_c       25.38973271972882
_cell_angle_alpha    90.0
_cell_angle_beta     90.0
_cell_angle_gamma    120.00000000000594

_space_group_name_H-M_alt    "P 1"
_space_group_IT_number       1

loop_
  _space_group_symop_operation_xyz
  'x, y, z'

loop_
  _atom_site_type_symbol
  _atom_site_label
  _atom_site_symmetry_multiplicity
  _atom_site_fract_x
  _atom_site_fract_y
  _atom_site_fract_z
  _atom_site_occupancy
  C   C1        1.0  0.0  0.0  0.4474335343126183  1.0000
  C   C2        1.0  0.33333298543221457  0.6666669831836743  0.5980729624561465  1.0000
  F   F1        1.0  0.6666669847440473  0.3333329859851446  0.3544739954275551  1.0000
  N   N1        1.0  0.33333298543221457  0.6666669831836743  0.5490294988087363  1.0000
  O   O1        1.0  0.33333298543221457  0.6666669831836743  0.6455260045724449  1.0000
  Sc  Sc1       1.0  0.33333298543221457  0.6666669831836743  0.39784827697563413  1.0000
  Sc  Sc2       1.0  0.6666669847440473  0.3333329859851446  0.4964545861933476  1.0000
