data_image0
_chemical_formula_structural       ClHNO2Ti2
_chemical_formula_sum              "Cl1 H1 N1 O2 Ti2"
_cell_length_a       3.0596166804677267
_cell_length_b       3.0596166804677174
_cell_length_c       28.279232498213318
_cell_angle_alpha    90.0
_cell_angle_beta     90.0
_cell_angle_gamma    120.00000000000011

_space_group_name_H-M_alt    "P 1"
_space_group_IT_number       1

loop_
  _space_group_symop_operation_xyz
  'x, y, z'

loop_
  _atom_site_type_symbol
  _atom_site_label
  _atom_site_symmetry_multiplicity
  _atom_site_fract_x
  _atom_site_fract_y
  _atom_site_fract_z
  _atom_site_occupancy
  Cl  Cl1       1.0  0.3333329854322147  0.6666669831836743  0.6817452524367973  1.0000
  H   H1        1.0  0.6666669847440474  0.3333329859851446  0.3182547475632028  1.0000
  N   N1        1.0  0.0  0.0  0.43783376074372526  1.0000
  O   O1        1.0  0.3333329854322147  0.6666669831836743  0.5150237364406478  1.0000
  O   O2        1.0  0.6666669847440474  0.3333329859851446  0.3532256449671265  1.0000
  Ti  Ti1       1.0  0.3333329854322147  0.6666669831836743  0.39757950975962875  1.0000
  Ti  Ti2       1.0  0.6666669847440474  0.3333329859851446  0.4829096359962745  1.0000
