data_image0
_chemical_formula_structural       C3Hf2N2O
_chemical_formula_sum              "C3 Hf2 N2 O1"
_cell_length_a       3.3369336319386185
_cell_length_b       3.3369336319380114
_cell_length_c       26.97788774606434
_cell_angle_alpha    90.0
_cell_angle_beta     90.0
_cell_angle_gamma    120.00000000000603

_space_group_name_H-M_alt    "P 1"
_space_group_IT_number       1

loop_
  _space_group_symop_operation_xyz
  'x, y, z'

loop_
  _atom_site_type_symbol
  _atom_site_label
  _atom_site_symmetry_multiplicity
  _atom_site_fract_x
  _atom_site_fract_y
  _atom_site_fract_z
  _atom_site_occupancy
  C   C1        1.0  0.0  0.0  0.5211346624554887  1.0000
  C   C2        1.0  0.3333329854322145  0.6666669831836742  0.6216589263707533  1.0000
  C   C3        1.0  0.6666669847440474  0.3333329859851446  0.3776276838870957  1.0000
  Hf  Hf1       1.0  0.3333329854322145  0.6666669831836742  0.4780980952450045  1.0000
  Hf  Hf2       1.0  0.6666669847440474  0.3333329859851446  0.5675105911517833  1.0000
  N   N1        1.0  0.3333329854322145  0.6666669831836742  0.666393452122175  1.0000
  N   N2        1.0  0.6666669847440474  0.3333329859851446  0.333606547877825  1.0000
  O   O1        1.0  0.6666669847440474  0.3333329859851446  0.4272970361392995  1.0000
