data_image0
_chemical_formula_structural       ClNO2Sc2
_chemical_formula_sum              "Cl1 N1 O2 Sc2"
_cell_length_a       3.3048369020920796
_cell_length_b       3.3048369020812967
_cell_length_c       24.253451332875642
_cell_angle_alpha    90.0
_cell_angle_beta     90.0
_cell_angle_gamma    120.00000000010793

_space_group_name_H-M_alt    "P 1"
_space_group_IT_number       1

loop_
  _space_group_symop_operation_xyz
  'x, y, z'

loop_
  _atom_site_type_symbol
  _atom_site_label
  _atom_site_symmetry_multiplicity
  _atom_site_fract_x
  _atom_site_fract_y
  _atom_site_fract_z
  _atom_site_occupancy
  Cl  Cl1       1.0  0.3333329854322145  0.6666669831836742  0.6289187927740219  1.0000
  N   N1        1.0  0.0  0.0  0.4654474704267567  1.0000
  O   O1        1.0  0.3333329854322145  0.6666669831836742  0.5582064111615416  1.0000
  O   O2        1.0  0.6666669847440474  0.3333329859851446  0.37108120722597804  1.0000
  Sc  Sc1       1.0  0.3333329854322145  0.6666669831836742  0.39980962196368314  1.0000
  Sc  Sc2       1.0  0.6666669847440474  0.3333329859851446  0.5081545063643356  1.0000
