data_image0
_chemical_formula_structural       CFN2Y2
_chemical_formula_sum              "C1 F1 N2 Y2"
_cell_length_a       3.5475851656041693
_cell_length_b       3.547585165604794
_cell_length_c       24.586379441228644
_cell_angle_alpha    90.0
_cell_angle_beta     90.0
_cell_angle_gamma    119.99999999999416

_space_group_name_H-M_alt    "P 1"
_space_group_IT_number       1

loop_
  _space_group_symop_operation_xyz
  'x, y, z'

loop_
  _atom_site_type_symbol
  _atom_site_label
  _atom_site_symmetry_multiplicity
  _atom_site_fract_x
  _atom_site_fract_y
  _atom_site_fract_z
  _atom_site_occupancy
  C   C1        1.0  0.3333329854322145  0.6666669831836742  0.5850942910738379  1.0000
  F   F1        1.0  0.6666669847440474  0.3333329859851447  0.3660563370671809  1.0000
  N   N1        1.0  0.0  0.0  0.4664703726704741  1.0000
  N   N2        1.0  0.3333329854322145  0.6666669831836742  0.6339436629328191  1.0000
  Y   Y1        1.0  0.3333329854322145  0.6666669831836742  0.4153789983442987  1.0000
  Y   Y2        1.0  0.6666669847440474  0.3333329859851447  0.5240608304056764  1.0000
