data_image0
_chemical_formula_structural       BrCOPTi2
_chemical_formula_sum              "Br1 C1 O1 P1 Ti2"
_cell_length_a       3.230565143607971
_cell_length_b       3.230565143605479
_cell_length_c       25.400886772358263
_cell_angle_alpha    90.0
_cell_angle_beta     90.0
_cell_angle_gamma    120.00000000002551

_space_group_name_H-M_alt    "P 1"
_space_group_IT_number       1

loop_
  _space_group_symop_operation_xyz
  'x, y, z'

loop_
  _atom_site_type_symbol
  _atom_site_label
  _atom_site_symmetry_multiplicity
  _atom_site_fract_x
  _atom_site_fract_y
  _atom_site_fract_z
  _atom_site_occupancy
  Br  Br1       1.0  0.6666669847440474  0.3333329859851446  0.3543183385941461  1.0000
  C   C1        1.0  0.0  0.0  0.46992788757022513  1.0000
  O   O1        1.0  0.3333329854322145  0.6666669831836742  0.645681661405854  1.0000
  P   P1        1.0  0.3333329854322145  0.6666669831836742  0.5869691338504416  1.0000
  Ti  Ti1       1.0  0.3333329854322145  0.6666669831836742  0.42684602303831404  1.0000
  Ti  Ti2       1.0  0.6666669847440474  0.3333329859851446  0.5139415557318222  1.0000
