data_image0
_chemical_formula_structural       C2N3S2Zr2
_chemical_formula_sum              "C2 N3 S2 Zr2"
_cell_length_a       3.4223639421185865
_cell_length_b       3.422363942090231
_cell_length_c       28.70189883215875
_cell_angle_alpha    90.0
_cell_angle_beta     90.0
_cell_angle_gamma    120.00000000027408

_space_group_name_H-M_alt    "P 1"
_space_group_IT_number       1

loop_
  _space_group_symop_operation_xyz
  'x, y, z'

loop_
  _atom_site_type_symbol
  _atom_site_label
  _atom_site_symmetry_multiplicity
  _atom_site_fract_x
  _atom_site_fract_y
  _atom_site_fract_z
  _atom_site_occupancy
  C   C1        1.0  0.3333329854322145  0.6666669831836742  0.6322893750087419  1.0000
  C   C2        1.0  0.6666669847440474  0.3333329859851446  0.367710624991258  1.0000
  N   N1        1.0  0.0  0.0  0.5000000279955729  1.0000
  N   N2        1.0  0.3333329854322145  0.6666669831836742  0.5886246865824494  1.0000
  N   N3        1.0  0.6666669847440474  0.3333329859851446  0.4113753138323001  1.0000
  S   S1        1.0  0.3333329854322145  0.6666669831836742  0.6864318959303124  1.0000
  S   S2        1.0  0.6666669847440474  0.3333329859851446  0.3135681040696876  1.0000
  Zr  Zr1       1.0  0.3333329854322145  0.6666669831836742  0.4597105730092792  1.0000
  Zr  Zr2       1.0  0.6666669847440474  0.3333329859851446  0.5402894269907133  1.0000
