data_image0
_chemical_formula_structural       C2HHf2NS
_chemical_formula_sum              "C2 H1 Hf2 N1 S1"
_cell_length_a       3.3206947505324833
_cell_length_b       3.3206947505284585
_cell_length_c       25.601413127986227
_cell_angle_alpha    90.0
_cell_angle_beta     90.0
_cell_angle_gamma    120.00000000004009

_space_group_name_H-M_alt    "P 1"
_space_group_IT_number       1

loop_
  _space_group_symop_operation_xyz
  'x, y, z'

loop_
  _atom_site_type_symbol
  _atom_site_label
  _atom_site_symmetry_multiplicity
  _atom_site_fract_x
  _atom_site_fract_y
  _atom_site_fract_z
  _atom_site_occupancy
  C   C1        1.0  0.0  0.0  0.4380871715982093  1.0000
  C   C2        1.0  0.3333329854322145  0.6666669831836742  0.587895523382538  1.0000
  H   H1        1.0  0.6666669847440473  0.33333298598514477  0.3515430947115038  1.0000
  Hf  Hf1       1.0  0.3333329854322145  0.6666669831836742  0.390066369439285  1.0000
  Hf  Hf2       1.0  0.6666669847440473  0.33333298598514477  0.4854938459422858  1.0000
  N   N1        1.0  0.3333329854322145  0.6666669831836742  0.538741844871004  1.0000
  S   S1        1.0  0.3333329854322145  0.6666669831836742  0.6484569052884961  1.0000
