data_image0
_chemical_formula_structural       CClN2OSZr2
_chemical_formula_sum              "C1 Cl1 N2 O1 S1 Zr2"
_cell_length_a       3.312271753375596
_cell_length_b       3.3122717533883748
_cell_length_c       29.18829031439051
_cell_angle_alpha    90.0
_cell_angle_beta     90.0
_cell_angle_gamma    119.99999999987239

_space_group_name_H-M_alt    "P 1"
_space_group_IT_number       1

loop_
  _space_group_symop_operation_xyz
  'x, y, z'

loop_
  _atom_site_type_symbol
  _atom_site_label
  _atom_site_symmetry_multiplicity
  _atom_site_fract_x
  _atom_site_fract_y
  _atom_site_fract_z
  _atom_site_occupancy
  C   C1        1.0  0.6666669847440474  0.3333329859851446  0.36144095820292976  1.0000
  Cl  Cl1       1.0  0.3333329854322146  0.6666669831836742  0.6916571713156221  1.0000
  N   N1        1.0  0.0  0.0  0.496704833593823  1.0000
  N   N2        1.0  0.6666669847440474  0.3333329859851446  0.4046441672432975  1.0000
  O   O1        1.0  0.3333329854322146  0.6666669831836742  0.5733300002936453  1.0000
  S   S1        1.0  0.6666669847440474  0.3333329859851446  0.3083428286843779  1.0000
  Zr  Zr1       1.0  0.3333329854322146  0.6666669831836742  0.45138326316628663  1.0000
  Zr  Zr2       1.0  0.6666669847440474  0.3333329859851446  0.5422556866082793  1.0000
