data_image0
_chemical_formula_structural       HN2OSc2
_chemical_formula_sum              "H1 N2 O1 Sc2"
_cell_length_a       3.272855117370851
_cell_length_b       3.2728551173632296
_cell_length_c       23.960951147393043
_cell_angle_alpha    90.0
_cell_angle_beta     90.0
_cell_angle_gamma    120.00000000007704

_space_group_name_H-M_alt    "P 1"
_space_group_IT_number       1

loop_
  _space_group_symop_operation_xyz
  'x, y, z'

loop_
  _atom_site_type_symbol
  _atom_site_label
  _atom_site_symmetry_multiplicity
  _atom_site_fract_x
  _atom_site_fract_y
  _atom_site_fract_z
  _atom_site_occupancy
  H   H1        1.0  0.6666669847440474  0.3333329859851446  0.37561113265652657  1.0000
  N   N1        1.0  0.0  0.0  0.4644725854732591  1.0000
  N   N2        1.0  0.3333329854322145  0.6666669831836742  0.5694777319727853  1.0000
  O   O1        1.0  0.3333329854322145  0.6666669831836742  0.6243888673434735  1.0000
  Sc  Sc1       1.0  0.3333329854322145  0.6666669831836742  0.4189605160499859  1.0000
  Sc  Sc2       1.0  0.6666669847440474  0.3333329859851446  0.52587885557341  1.0000
