data_image0
_chemical_formula_structural       Br2CTi2
_chemical_formula_sum              "Br2 C1 Ti2"
_cell_length_a       3.331158457906598
_cell_length_b       3.3311584578880273
_cell_length_c       23.779842080895005
_cell_angle_alpha    90.0
_cell_angle_beta     90.0
_cell_angle_gamma    120.00000000018441

_space_group_name_H-M_alt    "P 1"
_space_group_IT_number       1

loop_
  _space_group_symop_operation_xyz
  'x, y, z'

loop_
  _atom_site_type_symbol
  _atom_site_label
  _atom_site_symmetry_multiplicity
  _atom_site_fract_x
  _atom_site_fract_y
  _atom_site_fract_z
  _atom_site_occupancy
  Br  Br1       1.0  0.3333329854322146  0.6666669831836742  0.6215281846959486  1.0000
  Br  Br2       1.0  0.6666669847440473  0.3333329859851446  0.3784718153040513  1.0000
  C   C1        1.0  0.0  0.0  0.5000000354016781  1.0000
  Ti  Ti1       1.0  0.3333329854322146  0.6666669831836742  0.4553280210191668  1.0000
  Ti  Ti2       1.0  0.6666669847440473  0.3333329859851446  0.5446719784524403  1.0000
