data_image0
_chemical_formula_structural       C2HHf2NO
_chemical_formula_sum              "C2 H1 Hf2 N1 O1"
_cell_length_a       3.297898222931225
_cell_length_b       3.297898222935943
_cell_length_c       25.324669249941124
_cell_angle_alpha    90.0
_cell_angle_beta     90.0
_cell_angle_gamma    119.99999999995269

_space_group_name_H-M_alt    "P 1"
_space_group_IT_number       1

loop_
  _space_group_symop_operation_xyz
  'x, y, z'

loop_
  _atom_site_type_symbol
  _atom_site_label
  _atom_site_symmetry_multiplicity
  _atom_site_fract_x
  _atom_site_fract_y
  _atom_site_fract_z
  _atom_site_occupancy
  C   C1        1.0  0.0  0.0  0.5558425799753584  1.0000
  C   C2        1.0  0.6666669847440474  0.33333298598514444  0.4022615505619513  1.0000
  H   H1        1.0  0.3333329854322145  0.6666669831836742  0.6446152993677926  1.0000
  Hf  Hf1       1.0  0.3333329854322145  0.6666669831836742  0.5098543236250593  1.0000
  Hf  Hf2       1.0  0.6666669847440474  0.33333298598514444  0.6055597341620171  1.0000
  N   N1        1.0  0.6666669847440474  0.33333298598514444  0.3553847006322076  1.0000
  O   O1        1.0  0.6666669847440474  0.33333298598514444  0.45513010546702687  1.0000
