data_image0
_chemical_formula_structural       C2HNOSSc2
_chemical_formula_sum              "C2 H1 N1 O1 S1 Sc2"
_cell_length_a       3.3799697388005145
_cell_length_b       3.3799697387720604
_cell_length_c       26.819361802672674
_cell_angle_alpha    90.0
_cell_angle_beta     90.0
_cell_angle_gamma    120.00000000027848

_space_group_name_H-M_alt    "P 1"
_space_group_IT_number       1

loop_
  _space_group_symop_operation_xyz
  'x, y, z'

loop_
  _atom_site_type_symbol
  _atom_site_label
  _atom_site_symmetry_multiplicity
  _atom_site_fract_x
  _atom_site_fract_y
  _atom_site_fract_z
  _atom_site_occupancy
  C   C1        1.0  0.0  0.0  0.4644793439617566  1.0000
  C   C2        1.0  0.3333329854322145  0.6666669831836742  0.6064084906003436  1.0000
  H   H1        1.0  0.6666669847440473  0.3333329859851446  0.3355784550810269  1.0000
  N   N1        1.0  0.3333329854322145  0.6666669831836742  0.5599715750500195  1.0000
  O   O1        1.0  0.6666669847440473  0.3333329859851446  0.37227319733032177  1.0000
  S   S1        1.0  0.3333329854322145  0.6666669831836742  0.6644215449189732  1.0000
  Sc  Sc1       1.0  0.3333329854322145  0.6666669831836742  0.41751768295309555  1.0000
  Sc  Sc2       1.0  0.6666669847440473  0.3333329859851446  0.5109087879977999  1.0000
