data_image0
_chemical_formula_structural       ClFNOTi2
_chemical_formula_sum              "Cl1 F1 N1 O1 Ti2"
_cell_length_a       3.1519208985650287
_cell_length_b       3.151920898574911
_cell_length_c       27.43888083757665
_cell_angle_alpha    90.0
_cell_angle_beta     90.0
_cell_angle_gamma    119.99999999989627

_space_group_name_H-M_alt    "P 1"
_space_group_IT_number       1

loop_
  _space_group_symop_operation_xyz
  'x, y, z'

loop_
  _atom_site_type_symbol
  _atom_site_label
  _atom_site_symmetry_multiplicity
  _atom_site_fract_x
  _atom_site_fract_y
  _atom_site_fract_z
  _atom_site_occupancy
  Cl  Cl1       1.0  0.3333329854322145  0.6666669831836742  0.6719982839943386  1.0000
  F   F1        1.0  0.6666669847440473  0.3333329859851446  0.3280017160056614  1.0000
  N   N1        1.0  0.0  0.0  0.4117150501571155  1.0000
  O   O1        1.0  0.3333329854322145  0.6666669831836742  0.4898810543912611  1.0000
  Ti  Ti1       1.0  0.3333329854322145  0.6666669831836742  0.37237344758903507  1.0000
  Ti  Ti2       1.0  0.6666669847440473  0.3333329859851446  0.45840082857500464  1.0000
