data_image0
_chemical_formula_structural       CHNO2Y2
_chemical_formula_sum              "C1 H1 N1 O2 Y2"
_cell_length_a       3.636961547854961
_cell_length_b       3.6369615478663917
_cell_length_c       25.62307439052273
_cell_angle_alpha    90.0
_cell_angle_beta     90.0
_cell_angle_gamma    119.99999999989602

_space_group_name_H-M_alt    "P 1"
_space_group_IT_number       1

loop_
  _space_group_symop_operation_xyz
  'x, y, z'

loop_
  _atom_site_type_symbol
  _atom_site_label
  _atom_site_symmetry_multiplicity
  _atom_site_fract_x
  _atom_site_fract_y
  _atom_site_fract_z
  _atom_site_occupancy
  C   C1        1.0  0.0  0.0  0.4931143790725512  1.0000
  H   H1        1.0  0.6666669847440474  0.3333329859851446  0.3512459068272016  1.0000
  N   N1        1.0  0.3333329854322145  0.6666669831836742  0.5982494422452466  1.0000
  O   O1        1.0  0.3333329854322145  0.6666669831836742  0.6487540931727984  1.0000
  O   O2        1.0  0.6666669847440474  0.3333329859851446  0.38972010780082195  1.0000
  Y   Y1        1.0  0.3333329854322145  0.6666669831836742  0.439673129766479  1.0000
  Y   Y2        1.0  0.6666669847440474  0.3333329859851446  0.5474000386780742  1.0000
