data_image0
_chemical_formula_structural       CHHf2N2S
_chemical_formula_sum              "C1 H1 Hf2 N2 S1"
_cell_length_a       3.3367349965635738
_cell_length_b       3.3367349965649646
_cell_length_c       25.91949034255654
_cell_angle_alpha    90.0
_cell_angle_beta     90.0
_cell_angle_gamma    119.99999999998623

_space_group_name_H-M_alt    "P 1"
_space_group_IT_number       1

loop_
  _space_group_symop_operation_xyz
  'x, y, z'

loop_
  _atom_site_type_symbol
  _atom_site_label
  _atom_site_symmetry_multiplicity
  _atom_site_fract_x
  _atom_site_fract_y
  _atom_site_fract_z
  _atom_site_occupancy
  C   C1        1.0  0.3333329854322145  0.6666669831836742  0.6068439382237221  1.0000
  H   H1        1.0  0.6666669847440475  0.3333329859851446  0.3472290496863332  1.0000
  Hf  Hf1       1.0  0.3333329854322145  0.6666669831836742  0.3849438089970688  1.0000
  Hf  Hf2       1.0  0.6666669847440475  0.3333329859851446  0.4771799745617419  1.0000
  N   N1        1.0  0.0  0.0  0.4278067771630417  1.0000
  N   N2        1.0  0.3333329854322145  0.6666669831836742  0.6527709503136667  1.0000
  S   S1        1.0  0.3333329854322145  0.6666669831836742  0.5413966476118013  1.0000
