data_image0
_chemical_formula_structural       CClFHf2O
_chemical_formula_sum              "C1 Cl1 F1 Hf2 O1"
_cell_length_a       3.3028503673698903
_cell_length_b       3.3028503673672818
_cell_length_c       26.177095274984126
_cell_angle_alpha    90.0
_cell_angle_beta     90.0
_cell_angle_gamma    120.00000000002612

_space_group_name_H-M_alt    "P 1"
_space_group_IT_number       1

loop_
  _space_group_symop_operation_xyz
  'x, y, z'

loop_
  _atom_site_type_symbol
  _atom_site_label
  _atom_site_symmetry_multiplicity
  _atom_site_fract_x
  _atom_site_fract_y
  _atom_site_fract_z
  _atom_site_occupancy
  C   C1        1.0  0.0  0.0  0.4381690169673234  1.0000
  Cl  Cl1       1.0  0.3333329854322145  0.6666669831836742  0.656187980161391  1.0000
  F   F1        1.0  0.6666669847440474  0.3333329859851446  0.343812019838609  1.0000
  Hf  Hf1       1.0  0.3333329854322145  0.6666669831836742  0.3930600186821128  1.0000
  Hf  Hf2       1.0  0.6666669847440474  0.3333329859851446  0.4928658397101209  1.0000
  O   O1        1.0  0.3333329854322145  0.6666669831836742  0.5263558544580599  1.0000
