data_image0
_chemical_formula_structural       C2ClNSY2
_chemical_formula_sum              "C2 Cl1 N1 S1 Y2"
_cell_length_a       3.7799764645982448
_cell_length_b       3.7799764646671474
_cell_length_c       26.986953044596543
_cell_angle_alpha    90.0
_cell_angle_beta     90.0
_cell_angle_gamma    119.999999999397

_space_group_name_H-M_alt    "P 1"
_space_group_IT_number       1

loop_
  _space_group_symop_operation_xyz
  'x, y, z'

loop_
  _atom_site_type_symbol
  _atom_site_label
  _atom_site_symmetry_multiplicity
  _atom_site_fract_x
  _atom_site_fract_y
  _atom_site_fract_z
  _atom_site_occupancy
  C   C1        1.0  0.0  0.0  0.4467584236651549  1.0000
  C   C2        1.0  0.3333329854322145  0.6666669831836742  0.6224031198562063  1.0000
  Cl  Cl1       1.0  0.6666669847440474  0.3333329859851446  0.3334944847285019  1.0000
  N   N1        1.0  0.3333329854322145  0.6666669831836742  0.666505515271498  1.0000
  S   S1        1.0  0.3333329854322145  0.6666669831836742  0.560350770952001  1.0000
  Y   Y1        1.0  0.3333329854322145  0.6666669831836742  0.39699868675120675  1.0000
  Y   Y2        1.0  0.6666669847440474  0.3333329859851446  0.4960767139398969  1.0000
