data_image0
_chemical_formula_structural       C2NOSSc2
_chemical_formula_sum              "C2 N1 O1 S1 Sc2"
_cell_length_a       3.400561765869419
_cell_length_b       3.400561765871524
_cell_length_c       26.00784875355246
_cell_angle_alpha    90.0
_cell_angle_beta     90.0
_cell_angle_gamma    119.99999999997954

_space_group_name_H-M_alt    "P 1"
_space_group_IT_number       1

loop_
  _space_group_symop_operation_xyz
  'x, y, z'

loop_
  _atom_site_type_symbol
  _atom_site_label
  _atom_site_symmetry_multiplicity
  _atom_site_fract_x
  _atom_site_fract_y
  _atom_site_fract_z
  _atom_site_occupancy
  C   C1        1.0  0.0  0.0  0.4359644252939537  1.0000
  C   C2        1.0  0.3333329854322146  0.6666669831836743  0.608091911798494  1.0000
  N   N1        1.0  0.3333329854322146  0.6666669831836743  0.6539506175507624  1.0000
  O   O1        1.0  0.6666669847440474  0.33333298598514477  0.3460493824492376  1.0000
  S   S1        1.0  0.3333329854322146  0.6666669831836743  0.5439865059604582  1.0000
  Sc  Sc1       1.0  0.3333329854322146  0.6666669831836743  0.3707368836899915  1.0000
  Sc  Sc2       1.0  0.6666669847440474  0.33333298598514477  0.478123485694719  1.0000
