data_image0
_chemical_formula_structural       CHHf2N2O
_chemical_formula_sum              "C1 H1 Hf2 N2 O1"
_cell_length_a       3.2837913523722744
_cell_length_b       3.2837913523637954
_cell_length_c       25.209056246939518
_cell_angle_alpha    90.0
_cell_angle_beta     90.0
_cell_angle_gamma    120.00000000008541

_space_group_name_H-M_alt    "P 1"
_space_group_IT_number       1

loop_
  _space_group_symop_operation_xyz
  'x, y, z'

loop_
  _atom_site_type_symbol
  _atom_site_label
  _atom_site_symmetry_multiplicity
  _atom_site_fract_x
  _atom_site_fract_y
  _atom_site_fract_z
  _atom_site_occupancy
  C   C1        1.0  0.6666669847440474  0.3333329859851446  0.4041018023829892  1.0000
  H   H1        1.0  0.33333298543221457  0.6666669831836742  0.6429854449195164  1.0000
  Hf  Hf1       1.0  0.33333298543221457  0.6666669831836742  0.5122430736440415  1.0000
  Hf  Hf2       1.0  0.6666669847440474  0.3333329859851446  0.6035363352616347  1.0000
  N   N1        1.0  0.0  0.0  0.5565432980410573  1.0000
  N   N2        1.0  0.6666669847440474  0.3333329859851446  0.3570145550804837  1.0000
  O   O1        1.0  0.6666669847440474  0.3333329859851446  0.4572766124724038  1.0000
