data_image0
_chemical_formula_structural       HNO2PZr2
_chemical_formula_sum              "H1 N1 O2 P1 Zr2"
_cell_length_a       3.3042708133834338
_cell_length_b       3.3042708133726735
_cell_length_c       26.28006262796368
_cell_angle_alpha    90.0
_cell_angle_beta     90.0
_cell_angle_gamma    120.00000000010772

_space_group_name_H-M_alt    "P 1"
_space_group_IT_number       1

loop_
  _space_group_symop_operation_xyz
  'x, y, z'

loop_
  _atom_site_type_symbol
  _atom_site_label
  _atom_site_symmetry_multiplicity
  _atom_site_fract_x
  _atom_site_fract_y
  _atom_site_fract_z
  _atom_site_occupancy
  H   H1        1.0  0.6666669847440476  0.3333329859851446  0.3424649372952185  1.0000
  N   N1        1.0  0.0  0.0  0.4758448347090564  1.0000
  O   O1        1.0  0.3333329854322146  0.6666669831836742  0.6575350627047813  1.0000
  O   O2        1.0  0.6666669847440476  0.3333329859851446  0.3801300149344323  1.0000
  P   P1        1.0  0.3333329854322146  0.6666669831836742  0.6006978291459699  1.0000
  Zr  Zr1       1.0  0.3333329854322146  0.6666669831836742  0.43156356783178373  1.0000
  Zr  Zr2       1.0  0.6666669847440476  0.3333329859851446  0.5253092494851093  1.0000
