data_image0
_chemical_formula_structural       C2NOSc2
_chemical_formula_sum              "C2 N1 O1 Sc2"
_cell_length_a       3.3320201472338935
_cell_length_b       3.332020147229493
_cell_length_c       24.219035701059227
_cell_angle_alpha    90.0
_cell_angle_beta     90.0
_cell_angle_gamma    120.0000000000437

_space_group_name_H-M_alt    "P 1"
_space_group_IT_number       1

loop_
  _space_group_symop_operation_xyz
  'x, y, z'

loop_
  _atom_site_type_symbol
  _atom_site_label
  _atom_site_symmetry_multiplicity
  _atom_site_fract_x
  _atom_site_fract_y
  _atom_site_fract_z
  _atom_site_occupancy
  C   C1        1.0  0.0  0.0  0.46978020829735545  1.0000
  C   C2        1.0  0.3333329854322145  0.6666669831836742  0.5789021676144945  1.0000
  N   N1        1.0  0.3333329854322145  0.6666669831836742  0.6283914805242894  1.0000
  O   O1        1.0  0.6666669847440474  0.3333329859851446  0.37160851947571066  1.0000
  Sc  Sc1       1.0  0.3333329854322145  0.6666669831836742  0.39985864201596716  1.0000
  Sc  Sc2       1.0  0.6666669847440474  0.3333329859851446  0.5185923311222674  1.0000
