data_image0
_chemical_formula_structural       CFHf2N2O
_chemical_formula_sum              "C1 F1 Hf2 N2 O1"
_cell_length_a       3.3326612513825116
_cell_length_b       3.3326612513803626
_cell_length_c       25.406898052003704
_cell_angle_alpha    90.0
_cell_angle_beta     90.0
_cell_angle_gamma    120.00000000002134

_space_group_name_H-M_alt    "P 1"
_space_group_IT_number       1

loop_
  _space_group_symop_operation_xyz
  'x, y, z'

loop_
  _atom_site_type_symbol
  _atom_site_label
  _atom_site_symmetry_multiplicity
  _atom_site_fract_x
  _atom_site_fract_y
  _atom_site_fract_z
  _atom_site_occupancy
  C   C1        1.0  0.33333298543221457  0.6666669831836742  0.5983242795919135  1.0000
  F   F1        1.0  0.6666669847440474  0.3333329859851447  0.35423450676971635  1.0000
  Hf  Hf1       1.0  0.33333298543221457  0.6666669831836742  0.40527711769400704  1.0000
  Hf  Hf2       1.0  0.6666669847440474  0.3333329859851447  0.49390515188626893  1.0000
  N   N1        1.0  0.0  0.0  0.4477443535238319  1.0000
  N   N2        1.0  0.33333298543221457  0.6666669831836742  0.5490796900873121  1.0000
  O   O1        1.0  0.33333298543221457  0.6666669831836742  0.6457654932302835  1.0000
