data_image0
_chemical_formula_structural       C3N2O2Y2
_chemical_formula_sum              "C3 N2 O2 Y2"
_cell_length_a       3.6583577827246176
_cell_length_b       3.6583577827207754
_cell_length_c       28.29268767962298
_cell_angle_alpha    90.0
_cell_angle_beta     90.0
_cell_angle_gamma    120.00000000003475

_space_group_name_H-M_alt    "P 1"
_space_group_IT_number       1

loop_
  _space_group_symop_operation_xyz
  'x, y, z'

loop_
  _atom_site_type_symbol
  _atom_site_label
  _atom_site_symmetry_multiplicity
  _atom_site_fract_x
  _atom_site_fract_y
  _atom_site_fract_z
  _atom_site_occupancy
  C   C1        1.0  0.0  0.0  0.5000000246704367  1.0000
  C   C2        1.0  0.33333298543221446  0.6666669831836742  0.6398512296404666  1.0000
  C   C3        1.0  0.6666669847440472  0.3333329859851446  0.36014876999131823  1.0000
  N   N1        1.0  0.33333298543221446  0.6666669831836742  0.6818966051612694  1.0000
  N   N2        1.0  0.6666669847440472  0.3333329859851446  0.3181033948387307  1.0000
  O   O1        1.0  0.33333298543221446  0.6666669831836742  0.5926550027598874  1.0000
  O   O2        1.0  0.6666669847440472  0.3333329859851446  0.4073449972401119  1.0000
  Y   Y1        1.0  0.33333298543221446  0.6666669831836742  0.45177490309267543  1.0000
  Y   Y2        1.0  0.6666669847440472  0.3333329859851446  0.5482250965391025  1.0000
