data_image0
_chemical_formula_structural       C2Hf2N3O
_chemical_formula_sum              "C2 Hf2 N3 O1"
_cell_length_a       3.3266591130547445
_cell_length_b       3.3266591130481453
_cell_length_c       26.84175320937922
_cell_angle_alpha    90.0
_cell_angle_beta     90.0
_cell_angle_gamma    120.00000000006561

_space_group_name_H-M_alt    "P 1"
_space_group_IT_number       1

loop_
  _space_group_symop_operation_xyz
  'x, y, z'

loop_
  _atom_site_type_symbol
  _atom_site_label
  _atom_site_symmetry_multiplicity
  _atom_site_fract_x
  _atom_site_fract_y
  _atom_site_fract_z
  _atom_site_occupancy
  C   C1        1.0  0.3333329854322145  0.6666669831836742  0.6196774978488772  1.0000
  C   C2        1.0  0.6666669847440474  0.3333329859851446  0.37953533456109745  1.0000
  Hf  Hf1       1.0  0.3333329854322145  0.6666669831836742  0.48043236156480956  1.0000
  Hf  Hf2       1.0  0.6666669847440474  0.3333329859851446  0.5654904872709683  1.0000
  N   N1        1.0  0.0  0.0  0.5212577902565037  1.0000
  N   N2        1.0  0.3333329854322145  0.6666669831836742  0.6647014846684769  1.0000
  N   N3        1.0  0.6666669847440474  0.3333329859851446  0.3352985153315232  1.0000
  O   O1        1.0  0.6666669847440474  0.3333329859851446  0.42951883625461684  1.0000
