data_image0
_chemical_formula_structural       HNO2PTi2
_chemical_formula_sum              "H1 N1 O2 P1 Ti2"
_cell_length_a       3.109824038454206
_cell_length_b       3.1098240384527838
_cell_length_c       25.792083637018905
_cell_angle_alpha    90.0
_cell_angle_beta     90.0
_cell_angle_gamma    120.00000000001513

_space_group_name_H-M_alt    "P 1"
_space_group_IT_number       1

loop_
  _space_group_symop_operation_xyz
  'x, y, z'

loop_
  _atom_site_type_symbol
  _atom_site_label
  _atom_site_symmetry_multiplicity
  _atom_site_fract_x
  _atom_site_fract_y
  _atom_site_fract_z
  _atom_site_occupancy
  H   H1        1.0  0.6666669847440474  0.3333329859851446  0.3489442778900758  1.0000
  N   N1        1.0  0.0  0.0  0.4773445125172919  1.0000
  O   O1        1.0  0.33333298543221457  0.6666669831836742  0.6510557221099242  1.0000
  O   O2        1.0  0.6666669847440474  0.3333329859851446  0.3872876177848792  1.0000
  P   P1        1.0  0.33333298543221457  0.6666669831836742  0.5932200907302785  1.0000
  Ti  Ti1       1.0  0.33333298543221457  0.6666669831836742  0.4357121140013246  1.0000
  Ti  Ti2       1.0  0.6666669847440474  0.3333329859851446  0.5210430785885223  1.0000
