data_image0
_chemical_formula_structural       BrClNOY2
_chemical_formula_sum              "Br1 Cl1 N1 O1 Y2"
_cell_length_a       3.772996605821786
_cell_length_b       3.772996605839316
_cell_length_c       25.088600879337527
_cell_angle_alpha    90.0
_cell_angle_beta     90.0
_cell_angle_gamma    119.99999999984631

_space_group_name_H-M_alt    "P 1"
_space_group_IT_number       1

loop_
  _space_group_symop_operation_xyz
  'x, y, z'

loop_
  _atom_site_type_symbol
  _atom_site_label
  _atom_site_symmetry_multiplicity
  _atom_site_fract_x
  _atom_site_fract_y
  _atom_site_fract_z
  _atom_site_occupancy
  Br  Br1       1.0  0.6666669847440474  0.3333329859851446  0.3587286530358981  1.0000
  Cl  Cl1       1.0  0.33333298543221457  0.6666669831836743  0.6412713469641019  1.0000
  N   N1        1.0  0.0  0.0  0.4650895382408359  1.0000
  O   O1        1.0  0.33333298543221457  0.6666669831836743  0.5344316561335891  1.0000
  Y   Y1        1.0  0.33333298543221457  0.6666669831836743  0.4382233602785875  1.0000
  Y   Y2        1.0  0.6666669847440474  0.3333329859851446  0.5621840347622395  1.0000
