data_image0
_chemical_formula_structural       C2FHf2NS
_chemical_formula_sum              "C2 F1 Hf2 N1 S1"
_cell_length_a       3.3556686167086833
_cell_length_b       3.355668616707291
_cell_length_c       25.853708995637486
_cell_angle_alpha    90.0
_cell_angle_beta     90.0
_cell_angle_gamma    120.00000000001373

_space_group_name_H-M_alt    "P 1"
_space_group_IT_number       1

loop_
  _space_group_symop_operation_xyz
  'x, y, z'

loop_
  _atom_site_type_symbol
  _atom_site_label
  _atom_site_symmetry_multiplicity
  _atom_site_fract_x
  _atom_site_fract_y
  _atom_site_fract_z
  _atom_site_occupancy
  C   C1        1.0  0.0  0.0  0.44274607722877685  1.0000
  C   C2        1.0  0.33333298543221457  0.6666669831836742  0.5918913331464715  1.0000
  F   F1        1.0  0.6666669847440474  0.3333329859851446  0.3481125281296639  1.0000
  Hf  Hf1       1.0  0.33333298543221457  0.6666669831836742  0.3984729282696718  1.0000
  Hf  Hf2       1.0  0.6666669847440474  0.3333329859851446  0.4910293730789725  1.0000
  N   N1        1.0  0.33333298543221457  0.6666669831836742  0.543156198555473  1.0000
  S   S1        1.0  0.33333298543221457  0.6666669831836742  0.651887471870336  1.0000
