data_image0
_chemical_formula_structural       CHHf2NO
_chemical_formula_sum              "C1 H1 Hf2 N1 O1"
_cell_length_a       3.325582727761823
_cell_length_b       3.3255827277584347
_cell_length_c       23.939588157737404
_cell_angle_alpha    90.0
_cell_angle_beta     90.0
_cell_angle_gamma    120.00000000003371

_space_group_name_H-M_alt    "P 1"
_space_group_IT_number       1

loop_
  _space_group_symop_operation_xyz
  'x, y, z'

loop_
  _atom_site_type_symbol
  _atom_site_label
  _atom_site_symmetry_multiplicity
  _atom_site_fract_x
  _atom_site_fract_y
  _atom_site_fract_z
  _atom_site_occupancy
  C   C1        1.0  0.0  0.0  0.46644807005516326  1.0000
  H   H1        1.0  0.6666669847440474  0.3333329859851446  0.3759463170669104  1.0000
  Hf  Hf1       1.0  0.3333329854322145  0.6666669831836742  0.4186712246436848  1.0000
  Hf  Hf2       1.0  0.6666669847440474  0.3333329859851446  0.5261651573044529  1.0000
  N   N1        1.0  0.3333329854322145  0.6666669831836742  0.5682172216820055  1.0000
  O   O1        1.0  0.3333329854322145  0.6666669831836742  0.6240536829330895  1.0000
