data_image0
_chemical_formula_structural       CN2O2Sc2
_chemical_formula_sum              "C1 N2 O2 Sc2"
_cell_length_a       3.290113709092951
_cell_length_b       3.2901137091018824
_cell_length_c       25.126997550275743
_cell_angle_alpha    90.0
_cell_angle_beta     90.0
_cell_angle_gamma    119.9999999999102

_space_group_name_H-M_alt    "P 1"
_space_group_IT_number       1

loop_
  _space_group_symop_operation_xyz
  'x, y, z'

loop_
  _atom_site_type_symbol
  _atom_site_label
  _atom_site_symmetry_multiplicity
  _atom_site_fract_x
  _atom_site_fract_y
  _atom_site_fract_z
  _atom_site_occupancy
  C   C1        1.0  0.6666669847440474  0.3333329859851446  0.4054397480873144  1.0000
  N   N1        1.0  0.0  0.0  0.5502848433399704  1.0000
  N   N2        1.0  0.6666669847440474  0.3333329859851446  0.3581804782681341  1.0000
  O   O1        1.0  0.33333298543221446  0.6666669831836741  0.6418195217318658  1.0000
  O   O2        1.0  0.6666669847440474  0.3333329859851446  0.4586256954603026  1.0000
  Sc  Sc1       1.0  0.33333298543221446  0.6666669831836741  0.5097029307240826  1.0000
  Sc  Sc2       1.0  0.6666669847440474  0.3333329859851446  0.6141846642035175  1.0000
