data_image0
_chemical_formula_structural       C2NOSY2
_chemical_formula_sum              "C2 N1 O1 S1 Y2"
_cell_length_a       3.681536434213062
_cell_length_b       3.681536434233936
_cell_length_c       26.31245386082296
_cell_angle_alpha    90.0
_cell_angle_beta     90.0
_cell_angle_gamma    119.99999999981245

_space_group_name_H-M_alt    "P 1"
_space_group_IT_number       1

loop_
  _space_group_symop_operation_xyz
  'x, y, z'

loop_
  _atom_site_type_symbol
  _atom_site_label
  _atom_site_symmetry_multiplicity
  _atom_site_fract_x
  _atom_site_fract_y
  _atom_site_fract_z
  _atom_site_occupancy
  C   C1        1.0  0.0  0.0  0.4357782533168005  1.0000
  C   C2        1.0  0.3333329854322146  0.6666669831836743  0.6126731123659223  1.0000
  N   N1        1.0  0.3333329854322146  0.6666669831836743  0.6579566448798512  1.0000
  O   O1        1.0  0.6666669847440474  0.3333329859851446  0.3420433551201489  1.0000
  S   S1        1.0  0.3333329854322146  0.6666669831836743  0.5491806284329311  1.0000
  Y   Y1        1.0  0.3333329854322146  0.6666669831836743  0.3659016658743491  1.0000
  Y   Y2        1.0  0.6666669847440474  0.3333329859851446  0.48062796852019435  1.0000
