data_image0
_chemical_formula_structural       CBrFSc2
_chemical_formula_sum              "C1 Br1 F1 Sc2"
_cell_length_a       3.387919356429293
_cell_length_b       3.387919356426275
_cell_length_c       30.36844118149737
_cell_angle_alpha    90.0
_cell_angle_beta     90.0
_cell_angle_gamma    120.00000000002949

_space_group_name_H-M_alt    "P 1"
_space_group_IT_number       1

loop_
  _space_group_symop_operation_xyz
  'x, y, z'

loop_
  _atom_site_type_symbol
  _atom_site_label
  _atom_site_symmetry_multiplicity
  _atom_site_fract_x
  _atom_site_fract_y
  _atom_site_fract_z
  _atom_site_occupancy
  C   C1        1.0  4.587484254954844e-33  6.409392968975646e-33  0.5135785149840076  1.0000
  Br  Br1       1.0  0.0  0.0  0.4081907753439802  1.0000
  F   F1        1.0  0.3333329854322145  0.6666669831836742  0.5909151518334566  1.0000
  Sc  Sc1       1.0  0.3333329854322145  0.6666669831836742  0.4720423920354719  1.0000
  Sc  Sc2       1.0  0.6666669847440474  0.3333329859851446  0.554576891373021  1.0000
