data_image0
_chemical_formula_structural       C2Hf2N2OS
_chemical_formula_sum              "C2 Hf2 N2 O1 S1"
_cell_length_a       3.3765128915548446
_cell_length_b       3.3765128915479816
_cell_length_c       27.042472476434856
_cell_angle_alpha    90.0
_cell_angle_beta     90.0
_cell_angle_gamma    120.00000000006725

_space_group_name_H-M_alt    "P 1"
_space_group_IT_number       1

loop_
  _space_group_symop_operation_xyz
  'x, y, z'

loop_
  _atom_site_type_symbol
  _atom_site_label
  _atom_site_symmetry_multiplicity
  _atom_site_fract_x
  _atom_site_fract_y
  _atom_site_fract_z
  _atom_site_occupancy
  C   C1        1.0  0.0  0.0  0.5291050515200393  1.0000
  C   C2        1.0  0.6666669847440474  0.3333329859851446  0.39016357586921385  1.0000
  Hf  Hf1       1.0  0.3333329854322145  0.6666669831836742  0.4870714757453652  1.0000
  Hf  Hf2       1.0  0.6666669847440474  0.3333329859851446  0.582116775103396  1.0000
  N   N1        1.0  0.3333329854322145  0.6666669831836742  0.617544425762873  1.0000
  N   N2        1.0  0.6666669847440474  0.3333329859851446  0.4367846432236411  1.0000
  O   O1        1.0  0.3333329854322145  0.6666669831836742  0.6671901946893831  1.0000
  S   S1        1.0  0.6666669847440474  0.3333329859851446  0.3328098053106169  1.0000
