data_image0
_chemical_formula_structural       CHN2O2Y2
_chemical_formula_sum              "C1 H1 N2 O2 Y2"
_cell_length_a       3.5214912094691435
_cell_length_b       3.5214912094611406
_cell_length_c       26.85554993431126
_cell_angle_alpha    90.0
_cell_angle_beta     90.0
_cell_angle_gamma    120.00000000007518

_space_group_name_H-M_alt    "P 1"
_space_group_IT_number       1

loop_
  _space_group_symop_operation_xyz
  'x, y, z'

loop_
  _atom_site_type_symbol
  _atom_site_label
  _atom_site_symmetry_multiplicity
  _atom_site_fract_x
  _atom_site_fract_y
  _atom_site_fract_z
  _atom_site_occupancy
  C   C1        1.0  0.33333298543221457  0.6666669831836742  0.6199593203184636  1.0000
  H   H1        1.0  0.6666669847440474  0.3333329859851445  0.3351262596377294  1.0000
  N   N1        1.0  0.0  0.0  0.4697538609529999  1.0000
  N   N2        1.0  0.33333298543221457  0.6666669831836742  0.57361049537238  1.0000
  O   O1        1.0  0.33333298543221457  0.6666669831836742  0.6648737403622708  1.0000
  O   O2        1.0  0.6666669847440474  0.3333329859851445  0.37186482645971236  1.0000
  Y   Y1        1.0  0.33333298543221457  0.6666669831836742  0.4204208110802843  1.0000
  Y   Y2        1.0  0.6666669847440474  0.3333329859851445  0.519742552589445  1.0000
