data_image0
_chemical_formula_structural       CBrClY2
_chemical_formula_sum              "C1 Br1 Cl1 Y2"
_cell_length_a       3.741467111489585
_cell_length_b       3.741467111528608
_cell_length_c       24.90031059621638
_cell_angle_alpha    90.0
_cell_angle_beta     90.0
_cell_angle_gamma    119.99999999965499

_space_group_name_H-M_alt    "P 1"
_space_group_IT_number       1

loop_
  _space_group_symop_operation_xyz
  'x, y, z'

loop_
  _atom_site_type_symbol
  _atom_site_label
  _atom_site_symmetry_multiplicity
  _atom_site_fract_x
  _atom_site_fract_y
  _atom_site_fract_z
  _atom_site_occupancy
  C   C1        1.0  4.152523401449062e-32  5.94411308340889e-32  0.4983790520319614  1.0000
  Br  Br1       1.0  0.6666669847440474  0.3333329859851446  0.6300561063610416  1.0000
  Cl  Cl1       1.0  0.3333329854322145  0.6666669831836742  0.37488303527255706  1.0000
  Y   Y1        1.0  0.3333329854322145  0.6666669831836742  0.5520701161728577  1.0000
  Y   Y2        1.0  0.6666669847440474  0.3333329859851446  0.4445124405384416  1.0000
