data_image0
_chemical_formula_structural       FHNY2
_chemical_formula_sum              "F1 H1 N1 Y2"
_cell_length_a       3.5051605253446874
_cell_length_b       3.505160525344155
_cell_length_c       22.94311566404123
_cell_angle_alpha    90.0
_cell_angle_beta     90.0
_cell_angle_gamma    120.00000000000503

_space_group_name_H-M_alt    "P 1"
_space_group_IT_number       1

loop_
  _space_group_symop_operation_xyz
  'x, y, z'

loop_
  _atom_site_type_symbol
  _atom_site_label
  _atom_site_symmetry_multiplicity
  _atom_site_fract_x
  _atom_site_fract_y
  _atom_site_fract_z
  _atom_site_occupancy
  F   F1        1.0  0.3333329854322145  0.6666669831836741  0.6077254662449482  1.0000
  H   H1        1.0  0.6666669847440472  0.3333329859851446  0.3922745337550518  1.0000
  N   N1        1.0  0.0  0.0  0.4986869175285907  1.0000
  Y   Y1        1.0  0.3333329854322145  0.6666669831836741  0.4365707420114637  1.0000
  Y   Y2        1.0  0.6666669847440472  0.3333329859851446  0.5534795988758148  1.0000
