data_image0
_chemical_formula_structural       ClFNTi2
_chemical_formula_sum              "Cl1 F1 N1 Ti2"
_cell_length_a       3.2522427700314056
_cell_length_b       3.252242770027561
_cell_length_c       22.916091621604934
_cell_angle_alpha    90.0
_cell_angle_beta     90.0
_cell_angle_gamma    120.0000000000391

_space_group_name_H-M_alt    "P 1"
_space_group_IT_number       1

loop_
  _space_group_symop_operation_xyz
  'x, y, z'

loop_
  _atom_site_type_symbol
  _atom_site_label
  _atom_site_symmetry_multiplicity
  _atom_site_fract_x
  _atom_site_fract_y
  _atom_site_fract_z
  _atom_site_occupancy
  Cl  Cl1       1.0  0.6666669847440473  0.3333329859851446  0.3927371276310895  1.0000
  F   F1        1.0  0.33333298543221446  0.6666669831836742  0.6072628723689104  1.0000
  N   N1        1.0  0.0  0.0  0.5114747749418549  1.0000
  Ti  Ti1       1.0  0.33333298543221446  0.6666669831836742  0.46590718765808437  1.0000
  Ti  Ti2       1.0  0.6666669847440473  0.3333329859851446  0.5550057144525867  1.0000
