data_image0
_chemical_formula_structural       ClHNOY2
_chemical_formula_sum              "Cl1 H1 N1 O1 Y2"
_cell_length_a       3.5554715564395383
_cell_length_b       3.555471556459242
_cell_length_c       26.473676865282574
_cell_angle_alpha    90.0
_cell_angle_beta     90.0
_cell_angle_gamma    119.9999999998167

_space_group_name_H-M_alt    "P 1"
_space_group_IT_number       1

loop_
  _space_group_symop_operation_xyz
  'x, y, z'

loop_
  _atom_site_type_symbol
  _atom_site_label
  _atom_site_symmetry_multiplicity
  _atom_site_fract_x
  _atom_site_fract_y
  _atom_site_fract_z
  _atom_site_occupancy
  Cl  Cl1       1.0  0.3333329854322145  0.6666669831836741  0.6600396671078754  1.0000
  H   H1        1.0  0.6666669847440474  0.3333329859851446  0.3399603328921246  1.0000
  N   N1        1.0  0.0  0.0  0.4232683029918922  1.0000
  O   O1        1.0  0.3333329854322145  0.6666669831836741  0.5149033581232882  1.0000
  Y   Y1        1.0  0.3333329854322145  0.6666669831836741  0.3822267643252153  1.0000
  Y   Y2        1.0  0.6666669847440474  0.3333329859851446  0.4900187760569693  1.0000
