data_image0
_chemical_formula_structural       C3N2SY2
_chemical_formula_sum              "C3 N2 S1 Y2"
_cell_length_a       3.6938551965141033
_cell_length_b       3.693855196524998
_cell_length_c       27.567634371787936
_cell_angle_alpha    90.0
_cell_angle_beta     90.0
_cell_angle_gamma    119.99999999990244

_space_group_name_H-M_alt    "P 1"
_space_group_IT_number       1

loop_
  _space_group_symop_operation_xyz
  'x, y, z'

loop_
  _atom_site_type_symbol
  _atom_site_label
  _atom_site_symmetry_multiplicity
  _atom_site_fract_x
  _atom_site_fract_y
  _atom_site_fract_z
  _atom_site_occupancy
  C   C1        1.0  0.0  0.0  0.5272903758080496  1.0000
  C   C2        1.0  0.3333329854322145  0.6666669831836742  0.630021898985161  1.0000
  C   C3        1.0  0.6666669847440476  0.3333329859851447  0.38307112813537403  1.0000
  N   N1        1.0  0.3333329854322145  0.6666669831836742  0.6735302028958138  1.0000
  N   N2        1.0  0.6666669847440476  0.3333329859851447  0.4283296257127178  1.0000
  S   S1        1.0  0.6666669847440476  0.3333329859851447  0.3264697971041863  1.0000
  Y   Y1        1.0  0.3333329854322145  0.6666669831836742  0.47764861267996717  1.0000
  Y   Y2        1.0  0.6666669847440476  0.3333329859851447  0.5763354037034398  1.0000
