data_image0
_chemical_formula_structural       CN2OPY2
_chemical_formula_sum              "C1 N2 O1 P1 Y2"
_cell_length_a       3.5533987367989104
_cell_length_b       3.55339873680737
_cell_length_c       26.9371955135105
_cell_angle_alpha    90.0
_cell_angle_beta     90.0
_cell_angle_gamma    119.99999999992124

_space_group_name_H-M_alt    "P 1"
_space_group_IT_number       1

loop_
  _space_group_symop_operation_xyz
  'x, y, z'

loop_
  _atom_site_type_symbol
  _atom_site_label
  _atom_site_symmetry_multiplicity
  _atom_site_fract_x
  _atom_site_fract_y
  _atom_site_fract_z
  _atom_site_occupancy
  C   C1        1.0  0.3333329854322143  0.666666983183674  0.6213503194969464  1.0000
  N   N1        1.0  0.0  0.0  0.5162125582933091  1.0000
  N   N2        1.0  0.3333329854322143  0.666666983183674  0.6658894948627445  1.0000
  O   O1        1.0  0.6666669847440472  0.3333329859851446  0.3341105051372554  1.0000
  P   P1        1.0  0.6666669847440472  0.3333329859851446  0.3896528455775633  1.0000
  Y   Y1        1.0  0.3333329854322143  0.666666983183674  0.46699263915386113  1.0000
  Y   Y2        1.0  0.6666669847440472  0.3333329859851446  0.5649372076958485  1.0000
