data_image0
_chemical_formula_structural       CClHOSc2
_chemical_formula_sum              "C1 Cl1 H1 O1 Sc2"
_cell_length_a       3.3809062193090327
_cell_length_b       3.3809062193034065
_cell_length_c       24.394303877301915
_cell_angle_alpha    90.0
_cell_angle_beta     90.0
_cell_angle_gamma    120.00000000005505

_space_group_name_H-M_alt    "P 1"
_space_group_IT_number       1

loop_
  _space_group_symop_operation_xyz
  'x, y, z'

loop_
  _atom_site_type_symbol
  _atom_site_label
  _atom_site_symmetry_multiplicity
  _atom_site_fract_x
  _atom_site_fract_y
  _atom_site_fract_z
  _atom_site_occupancy
  C   C1        1.0  0.0  0.0  0.5107007396678935  1.0000
  Cl  Cl1       1.0  0.3333329854322146  0.6666669831836743  0.6310614131369332  1.0000
  H   H1        1.0  0.6666669847440476  0.3333329859851446  0.3689385868630668  1.0000
  O   O1        1.0  0.6666669847440476  0.3333329859851446  0.4092786014020031  1.0000
  Sc  Sc1       1.0  0.3333329854322146  0.6666669831836743  0.4589100830503036  1.0000
  Sc  Sc2       1.0  0.6666669847440476  0.3333329859851446  0.5612602505195092  1.0000
