data_image0
_chemical_formula_structural       CFN2SZr2
_chemical_formula_sum              "C1 F1 N2 S1 Zr2"
_cell_length_a       3.4074503563058856
_cell_length_b       3.4074503563041305
_cell_length_c       25.80294762020013
_cell_angle_alpha    90.0
_cell_angle_beta     90.0
_cell_angle_gamma    120.00000000001704

_space_group_name_H-M_alt    "P 1"
_space_group_IT_number       1

loop_
  _space_group_symop_operation_xyz
  'x, y, z'

loop_
  _atom_site_type_symbol
  _atom_site_label
  _atom_site_symmetry_multiplicity
  _atom_site_fract_x
  _atom_site_fract_y
  _atom_site_fract_z
  _atom_site_occupancy
  C   C1        1.0  0.3333329854322145  0.6666669831836742  0.5909940678227745  1.0000
  F   F1        1.0  0.6666669847440474  0.3333329859851446  0.3487973596068632  1.0000
  N   N1        1.0  0.0  0.0  0.4421664883893968  1.0000
  N   N2        1.0  0.3333329854322145  0.6666669831836742  0.5423989843853823  1.0000
  S   S1        1.0  0.3333329854322145  0.6666669831836742  0.6512026403931367  1.0000
  Zr  Zr1       1.0  0.3333329854322145  0.6666669831836742  0.3994351449150109  1.0000
  Zr  Zr2       1.0  0.6666669847440474  0.3333329859851446  0.48884011690800955  1.0000
