data_image0
_chemical_formula_structural       C3N2STi2
_chemical_formula_sum              "C3 N2 S1 Ti2"
_cell_length_a       3.2018903692639844
_cell_length_b       3.2018903692363643
_cell_length_c       26.929664569761563
_cell_angle_alpha    90.0
_cell_angle_beta     90.0
_cell_angle_gamma    120.00000000028535

_space_group_name_H-M_alt    "P 1"
_space_group_IT_number       1

loop_
  _space_group_symop_operation_xyz
  'x, y, z'

loop_
  _atom_site_type_symbol
  _atom_site_label
  _atom_site_symmetry_multiplicity
  _atom_site_fract_x
  _atom_site_fract_y
  _atom_site_fract_z
  _atom_site_occupancy
  C   C1        1.0  0.0  0.0  0.5278311681561139  1.0000
  C   C2        1.0  0.3333329854322146  0.6666669831836743  0.6211232812322826  1.0000
  C   C3        1.0  0.6666669847440474  0.3333329859851447  0.3917623676659462  1.0000
  N   N1        1.0  0.3333329854322146  0.6666669831836743  0.6657960600777107  1.0000
  N   N2        1.0  0.6666669847440474  0.3333329859851447  0.4382894956027192  1.0000
  S   S1        1.0  0.6666669847440474  0.3333329859851447  0.3342039399222895  1.0000
  Ti  Ti1       1.0  0.3333329854322146  0.6666669831836743  0.4855651576291778  1.0000
  Ti  Ti2       1.0  0.6666669847440474  0.3333329859851447  0.5692920068798093  1.0000
