data_image0
_chemical_formula_structural       CFN2Sc2
_chemical_formula_sum              "C1 F1 N2 Sc2"
_cell_length_a       3.331423017737794
_cell_length_b       3.3314230177361766
_cell_length_c       24.20499071128063
_cell_angle_alpha    90.0
_cell_angle_beta     90.0
_cell_angle_gamma    120.00000000001607

_space_group_name_H-M_alt    "P 1"
_space_group_IT_number       1

loop_
  _space_group_symop_operation_xyz
  'x, y, z'

loop_
  _atom_site_type_symbol
  _atom_site_label
  _atom_site_symmetry_multiplicity
  _atom_site_fract_x
  _atom_site_fract_y
  _atom_site_fract_z
  _atom_site_occupancy
  C   C1        1.0  0.3333329854322146  0.6666669831836742  0.5785764533165522  1.0000
  F   F1        1.0  0.6666669847440474  0.3333329859851446  0.37182414599339586  1.0000
  N   N1        1.0  0.0  0.0  0.46756479812090856  1.0000
  N   N2        1.0  0.3333329854322146  0.6666669831836742  0.628175854006604  1.0000
  Sc  Sc1       1.0  0.3333329854322146  0.6666669831836742  0.4194512977369839  1.0000
  Sc  Sc2       1.0  0.6666669847440474  0.3333329859851446  0.5198144889468905  1.0000
