data_image0
_chemical_formula_structural       C3Hf2N2S2
_chemical_formula_sum              "C3 Hf2 N2 S2"
_cell_length_a       3.3714736690756126
_cell_length_b       3.371473668994992
_cell_length_c       28.74767286388382
_cell_angle_alpha    90.0
_cell_angle_beta     90.0
_cell_angle_gamma    120.00000000079103

_space_group_name_H-M_alt    "P 1"
_space_group_IT_number       1

loop_
  _space_group_symop_operation_xyz
  'x, y, z'

loop_
  _atom_site_type_symbol
  _atom_site_label
  _atom_site_symmetry_multiplicity
  _atom_site_fract_x
  _atom_site_fract_y
  _atom_site_fract_z
  _atom_site_occupancy
  C   C1        1.0  0.0  0.0  0.50000002880117  1.0000
  C   C2        1.0  0.33333298543221457  0.6666669831836742  0.6329418691734292  1.0000
  C   C3        1.0  0.6666669847440472  0.3333329859851446  0.3670581308265704  1.0000
  Hf  Hf1       1.0  0.33333298543221457  0.6666669831836742  0.4579627030282057  1.0000
  Hf  Hf2       1.0  0.6666669847440472  0.3333329859851446  0.5420372969717865  1.0000
  N   N1        1.0  0.33333298543221457  0.6666669831836742  0.5891749752886661  1.0000
  N   N2        1.0  0.6666669847440472  0.3333329859851446  0.4108250251380179  1.0000
  S   S1        1.0  0.33333298543221457  0.6666669831836742  0.6869311807389165  1.0000
  S   S2        1.0  0.6666669847440472  0.3333329859851446  0.3130688192610835  1.0000
