data_image0
_chemical_formula_structural       CHf2N3O2
_chemical_formula_sum              "C1 Hf2 N3 O2"
_cell_length_a       3.2906178962121206
_cell_length_b       3.2906178962105015
_cell_length_c       26.798816296356982
_cell_angle_alpha    90.0
_cell_angle_beta     90.0
_cell_angle_gamma    120.00000000001627

_space_group_name_H-M_alt    "P 1"
_space_group_IT_number       1

loop_
  _space_group_symop_operation_xyz
  'x, y, z'

loop_
  _atom_site_type_symbol
  _atom_site_label
  _atom_site_symmetry_multiplicity
  _atom_site_fract_x
  _atom_site_fract_y
  _atom_site_fract_z
  _atom_site_occupancy
  C   C1        1.0  0.6666669847440476  0.3333329859851446  0.38077913087647963  1.0000
  Hf  Hf1       1.0  0.3333329854322145  0.6666669831836742  0.4809227489312581  1.0000
  Hf  Hf2       1.0  0.6666669847440476  0.3333329859851446  0.5736471777776947  1.0000
  N   N1        1.0  0.0  0.0  0.5237348116730296  1.0000
  N   N2        1.0  0.3333329854322145  0.6666669831836742  0.6142493005850079  1.0000
  N   N3        1.0  0.6666669847440476  0.3333329859851446  0.42750960295224255  1.0000
  O   O1        1.0  0.3333329854322145  0.6666669831836742  0.6641642712695689  1.0000
  O   O2        1.0  0.6666669847440476  0.3333329859851446  0.3358357287304311  1.0000
