data_image0
_chemical_formula_structural       C2N2OSSc2
_chemical_formula_sum              "C2 N2 O1 S1 Sc2"
_cell_length_a       3.4089204995510083
_cell_length_b       3.408920499545481
_cell_length_c       27.13562903476641
_cell_angle_alpha    90.0
_cell_angle_beta     90.0
_cell_angle_gamma    120.00000000005363

_space_group_name_H-M_alt    "P 1"
_space_group_IT_number       1

loop_
  _space_group_symop_operation_xyz
  'x, y, z'

loop_
  _atom_site_type_symbol
  _atom_site_label
  _atom_site_symmetry_multiplicity
  _atom_site_fract_x
  _atom_site_fract_y
  _atom_site_fract_z
  _atom_site_occupancy
  C   C1        1.0  0.0  0.0  0.5286069520748543  1.0000
  C   C2        1.0  0.6666669847440474  0.3333329859851446  0.38900209957766135  1.0000
  N   N1        1.0  0.3333329854322145  0.6666669831836742  0.620825766204677  1.0000
  N   N2        1.0  0.6666669847440474  0.3333329859851446  0.4349579236517649  1.0000
  O   O1        1.0  0.3333329854322145  0.6666669831836742  0.6683327300624164  1.0000
  S   S1        1.0  0.6666669847440474  0.3333329859851446  0.3316672699375835  1.0000
  Sc  Sc1       1.0  0.3333329854322145  0.6666669831836742  0.48280902823796873  1.0000
  Sc  Sc2       1.0  0.6666669847440474  0.3333329859851446  0.5753369465761642  1.0000
