data_image0
_chemical_formula_structural       CFHf2N2S
_chemical_formula_sum              "C1 F1 Hf2 N2 S1"
_cell_length_a       3.4135428928484397
_cell_length_b       3.4135428928393803
_cell_length_c       26.04274916874682
_cell_angle_alpha    90.0
_cell_angle_beta     90.0
_cell_angle_gamma    120.0000000000878

_space_group_name_H-M_alt    "P 1"
_space_group_IT_number       1

loop_
  _space_group_symop_operation_xyz
  'x, y, z'

loop_
  _atom_site_type_symbol
  _atom_site_label
  _atom_site_symmetry_multiplicity
  _atom_site_fract_x
  _atom_site_fract_y
  _atom_site_fract_z
  _atom_site_occupancy
  C   C1        1.0  0.33333298543221446  0.6666669831836741  0.6087167926427706  1.0000
  F   F1        1.0  0.6666669847440474  0.3333329859851446  0.3455856346687334  1.0000
  Hf  Hf1       1.0  0.33333298543221446  0.6666669831836741  0.39371984311229175  1.0000
  Hf  Hf2       1.0  0.6666669847440474  0.3333329859851446  0.48202190578115567  1.0000
  N   N1        1.0  0.0  0.0  0.43044710329201163  1.0000
  N   N2        1.0  0.33333298543221446  0.6666669831836741  0.6544143653312665  1.0000
  S   S1        1.0  0.33333298543221446  0.6666669831836741  0.5434971870773345  1.0000
