data_image0
_chemical_formula_structural       CFOPZr2
_chemical_formula_sum              "C1 F1 O1 P1 Zr2"
_cell_length_a       3.360918208556443
_cell_length_b       3.3609182085542004
_cell_length_c       25.327551585703727
_cell_angle_alpha    90.0
_cell_angle_beta     90.0
_cell_angle_gamma    120.00000000002208

_space_group_name_H-M_alt    "P 1"
_space_group_IT_number       1

loop_
  _space_group_symop_operation_xyz
  'x, y, z'

loop_
  _atom_site_type_symbol
  _atom_site_label
  _atom_site_symmetry_multiplicity
  _atom_site_fract_x
  _atom_site_fract_y
  _atom_site_fract_z
  _atom_site_occupancy
  C   C1        1.0  0.0  0.0  0.4550084474099585  1.0000
  F   F1        1.0  0.6666669847440472  0.3333329859851446  0.35534425700588035  1.0000
  O   O1        1.0  0.3333329854322144  0.6666669831836741  0.6446557429941195  1.0000
  P   P1        1.0  0.3333329854322144  0.6666669831836741  0.5857101352589171  1.0000
  Zr  Zr1       1.0  0.3333329854322144  0.6666669831836741  0.40718507646720137  1.0000
  Zr  Zr2       1.0  0.6666669847440472  0.3333329859851446  0.5068041454544759  1.0000
