data_image0
_chemical_formula_structural       C2N3S2Zr2
_chemical_formula_sum              "C2 N3 S2 Zr2"
_cell_length_a       3.5638503342857697
_cell_length_b       3.563850334264834
_cell_length_c       29.300987375713216
_cell_angle_alpha    90.0
_cell_angle_beta     90.0
_cell_angle_gamma    120.00000000019433

_space_group_name_H-M_alt    "P 1"
_space_group_IT_number       1

loop_
  _space_group_symop_operation_xyz
  'x, y, z'

loop_
  _atom_site_type_symbol
  _atom_site_label
  _atom_site_symmetry_multiplicity
  _atom_site_fract_x
  _atom_site_fract_y
  _atom_site_fract_z
  _atom_site_occupancy
  C   C1        1.0  0.3333329854322147  0.6666669831836742  0.652203024064721  1.0000
  C   C2        1.0  0.6666669847440474  0.3333329859851445  0.3477969763099305  1.0000
  N   N1        1.0  0.0  0.0  0.5000000252889736  1.0000
  N   N2        1.0  0.3333329854322147  0.6666669831836742  0.6928431153326986  1.0000
  N   N3        1.0  0.6666669847440474  0.3333329859851445  0.3071568846673014  1.0000
  S   S1        1.0  0.3333329854322147  0.6666669831836742  0.5947544620031192  1.0000
  S   S2        1.0  0.6666669847440474  0.3333329859851445  0.4052455383715323  1.0000
  Zr  Zr1       1.0  0.3333329854322147  0.6666669831836742  0.4614506807256539  1.0000
  Zr  Zr2       1.0  0.6666669847440474  0.3333329859851445  0.5385493192743395  1.0000
