data_image0
_chemical_formula_structural       CClN2OSZr2
_chemical_formula_sum              "C1 Cl1 N2 O1 S1 Zr2"
_cell_length_a       3.338461008379162
_cell_length_b       3.338461008378831
_cell_length_c       29.53106375316802
_cell_angle_alpha    90.0
_cell_angle_beta     90.0
_cell_angle_gamma    120.00000000000327

_space_group_name_H-M_alt    "P 1"
_space_group_IT_number       1

loop_
  _space_group_symop_operation_xyz
  'x, y, z'

loop_
  _atom_site_type_symbol
  _atom_site_label
  _atom_site_symmetry_multiplicity
  _atom_site_fract_x
  _atom_site_fract_y
  _atom_site_fract_z
  _atom_site_occupancy
  C   C1        1.0  0.6666669847440475  0.3333329859851446  0.3450894450724368  1.0000
  Cl  Cl1       1.0  0.3333329854322145  0.6666669831836742  0.6952361731624211  1.0000
  N   N1        1.0  0.0  0.0  0.5073082154999112  1.0000
  N   N2        1.0  0.6666669847440475  0.3333329859851446  0.3047638268375789  1.0000
  O   O1        1.0  0.3333329854322145  0.6666669831836742  0.5808962219317099  1.0000
  S   S1        1.0  0.6666669847440475  0.3333329859851446  0.4025495733118648  1.0000
  Zr  Zr1       1.0  0.3333329854322145  0.6666669831836742  0.4595312428216917  1.0000
  Zr  Zr2       1.0  0.6666669847440475  0.3333329859851446  0.5510967426499466  1.0000
