data_image0
_chemical_formula_structural       C2ClNY2
_chemical_formula_sum              "C2 Cl1 N1 Y2"
_cell_length_a       3.7167187725223765
_cell_length_b       3.716718772552068
_cell_length_c       25.11324073464052
_cell_angle_alpha    90.0
_cell_angle_beta     90.0
_cell_angle_gamma    119.99999999973575

_space_group_name_H-M_alt    "P 1"
_space_group_IT_number       1

loop_
  _space_group_symop_operation_xyz
  'x, y, z'

loop_
  _atom_site_type_symbol
  _atom_site_label
  _atom_site_symmetry_multiplicity
  _atom_site_fract_x
  _atom_site_fract_y
  _atom_site_fract_z
  _atom_site_occupancy
  C   C1        1.0  0.0  0.0  0.4817961570067184  1.0000
  C   C2        1.0  0.3333329854322145  0.6666669831836742  0.5938489953887576  1.0000
  Cl  Cl1       1.0  0.6666669847440474  0.3333329859851447  0.35837668643002524  1.0000
  N   N1        1.0  0.3333329854322145  0.6666669831836742  0.641623313569975  1.0000
  Y   Y1        1.0  0.3333329854322145  0.6666669831836742  0.42793625342902614  1.0000
  Y   Y2        1.0  0.6666669847440474  0.3333329859851447  0.5356896543905928  1.0000
