data_image0
_chemical_formula_structural       CHHf2N2S
_chemical_formula_sum              "C1 H1 Hf2 N2 S1"
_cell_length_a       3.2841685938582112
_cell_length_b       3.28416859385722
_cell_length_c       25.51138905337303
_cell_angle_alpha    90.0
_cell_angle_beta     90.0
_cell_angle_gamma    120.00000000000999

_space_group_name_H-M_alt    "P 1"
_space_group_IT_number       1

loop_
  _space_group_symop_operation_xyz
  'x, y, z'

loop_
  _atom_site_type_symbol
  _atom_site_label
  _atom_site_symmetry_multiplicity
  _atom_site_fract_x
  _atom_site_fract_y
  _atom_site_fract_z
  _atom_site_occupancy
  C   C1        1.0  0.33333298543221446  0.6666669831836742  0.5865716497706831  1.0000
  H   H1        1.0  0.6666669847440474  0.3333329859851446  0.3527836128864199  1.0000
  Hf  Hf1       1.0  0.33333298543221446  0.6666669831836742  0.39131167772588715  1.0000
  Hf  Hf2       1.0  0.6666669847440474  0.3333329859851446  0.48447541572052655  1.0000
  N   N1        1.0  0.0  0.0  0.4378988784823182  1.0000
  N   N2        1.0  0.33333298543221446  0.6666669831836742  0.5367294183913691  1.0000
  S   S1        1.0  0.33333298543221446  0.6666669831836742  0.6472163871135801  1.0000
