data_image0
_chemical_formula_structural       BrCN2OY2
_chemical_formula_sum              "Br1 C1 N2 O1 Y2"
_cell_length_a       3.60920925891854
_cell_length_b       3.6092092589264695
_cell_length_c       26.46102619026302
_cell_angle_alpha    90.0
_cell_angle_beta     90.0
_cell_angle_gamma    119.99999999992733

_space_group_name_H-M_alt    "P 1"
_space_group_IT_number       1

loop_
  _space_group_symop_operation_xyz
  'x, y, z'

loop_
  _atom_site_type_symbol
  _atom_site_label
  _atom_site_symmetry_multiplicity
  _atom_site_fract_x
  _atom_site_fract_y
  _atom_site_fract_z
  _atom_site_occupancy
  Br  Br1       1.0  0.6666669847440474  0.3333329859851446  0.3401228635385188  1.0000
  C   C1        1.0  0.33333298543221446  0.6666669831836742  0.6142975515847613  1.0000
  N   N1        1.0  0.0  0.0  0.4648683791203724  1.0000
  N   N2        1.0  0.33333298543221446  0.6666669831836742  0.5672064658196319  1.0000
  O   O1        1.0  0.33333298543221446  0.6666669831836742  0.6598771364614813  1.0000
  Y   Y1        1.0  0.33333298543221446  0.6666669831836742  0.41476137934810203  1.0000
  Y   Y2        1.0  0.6666669847440474  0.3333329859851446  0.5136747163106786  1.0000
