data_image0
_chemical_formula_structural       CHN2OTi2
_chemical_formula_sum              "C1 H1 N2 O1 Ti2"
_cell_length_a       3.1298122173545084
_cell_length_b       3.1298122173541154
_cell_length_c       24.906986832716495
_cell_angle_alpha    90.0
_cell_angle_beta     90.0
_cell_angle_gamma    120.00000000000416

_space_group_name_H-M_alt    "P 1"
_space_group_IT_number       1

loop_
  _space_group_symop_operation_xyz
  'x, y, z'

loop_
  _atom_site_type_symbol
  _atom_site_label
  _atom_site_symmetry_multiplicity
  _atom_site_fract_x
  _atom_site_fract_y
  _atom_site_fract_z
  _atom_site_occupancy
  C   C1        1.0  0.6666669847440474  0.3333329859851447  0.4090123766375927  1.0000
  H   H1        1.0  0.3333329854322146  0.6666669831836742  0.6386556085468325  1.0000
  N   N1        1.0  0.0  0.0  0.5567722154580197  1.0000
  N   N2        1.0  0.6666669847440474  0.3333329859851447  0.3613443914531675  1.0000
  O   O1        1.0  0.6666669847440474  0.3333329859851447  0.4626793913850282  1.0000
  Ti  Ti1       1.0  0.3333329854322146  0.6666669831836742  0.5149302835890873  1.0000
  Ti  Ti2       1.0  0.6666669847440474  0.3333329859851447  0.5995820154913873  1.0000
