data_image0
_chemical_formula_structural       CClN2Sc2
_chemical_formula_sum              "C1 Cl1 N2 Sc2"
_cell_length_a       3.3505345607262873
_cell_length_b       3.3505345607271675
_cell_length_c       24.720755628557793
_cell_angle_alpha    90.0
_cell_angle_beta     90.0
_cell_angle_gamma    119.99999999999132

_space_group_name_H-M_alt    "P 1"
_space_group_IT_number       1

loop_
  _space_group_symop_operation_xyz
  'x, y, z'

loop_
  _atom_site_type_symbol
  _atom_site_label
  _atom_site_symmetry_multiplicity
  _atom_site_fract_x
  _atom_site_fract_y
  _atom_site_fract_z
  _atom_site_occupancy
  C   C1        1.0  0.3333329854322146  0.6666669831836743  0.5873979645682266  1.0000
  Cl  Cl1       1.0  0.6666669847440474  0.3333329859851446  0.364066541299533  1.0000
  N   N1        1.0  0.0  0.0  0.4802882751229444  1.0000
  N   N2        1.0  0.3333329854322146  0.6666669831836743  0.635933458700467  1.0000
  Sc  Sc1       1.0  0.3333329854322146  0.6666669831836743  0.4326074111804515  1.0000
  Sc  Sc2       1.0  0.6666669847440474  0.3333329859851446  0.5298040618068391  1.0000
