data_image0
_chemical_formula_structural       BrFHf2N
_chemical_formula_sum              "Br1 F1 Hf2 N1"
_cell_length_a       3.40173358054108
_cell_length_b       3.4017335805359634
_cell_length_c       23.43530848178212
_cell_angle_alpha    90.0
_cell_angle_beta     90.0
_cell_angle_gamma    120.00000000004977

_space_group_name_H-M_alt    "P 1"
_space_group_IT_number       1

loop_
  _space_group_symop_operation_xyz
  'x, y, z'

loop_
  _atom_site_type_symbol
  _atom_site_label
  _atom_site_symmetry_multiplicity
  _atom_site_fract_x
  _atom_site_fract_y
  _atom_site_fract_z
  _atom_site_occupancy
  Br  Br1       1.0  0.6666669847440474  0.3333329859851446  0.3840359091921628  1.0000
  F   F1        1.0  0.33333298543221446  0.6666669831836742  0.6159640908078372  1.0000
  Hf  Hf1       1.0  0.33333298543221446  0.6666669831836742  0.4669660530533851  1.0000
  Hf  Hf2       1.0  0.6666669847440474  0.3333329859851446  0.5614296406112023  1.0000
  N   N1        1.0  0.0  0.0  0.5170198481575378  1.0000
