data_image0
_chemical_formula_structural       CFN2OTi2
_chemical_formula_sum              "C1 F1 N2 O1 Ti2"
_cell_length_a       3.222261356404126
_cell_length_b       3.2222613564020355
_cell_length_c       25.039809517234243
_cell_angle_alpha    90.0
_cell_angle_beta     90.0
_cell_angle_gamma    120.00000000002147

_space_group_name_H-M_alt    "P 1"
_space_group_IT_number       1

loop_
  _space_group_symop_operation_xyz
  'x, y, z'

loop_
  _atom_site_type_symbol
  _atom_site_label
  _atom_site_symmetry_multiplicity
  _atom_site_fract_x
  _atom_site_fract_y
  _atom_site_fract_z
  _atom_site_occupancy
  C   C1        1.0  0.3333329854322144  0.6666669831836741  0.5924764433041532  1.0000
  F   F1        1.0  0.6666669847440472  0.3333329859851446  0.3594276543439971  1.0000
  N   N1        1.0  0.0  0.0  0.4476037550889144  1.0000
  N   N2        1.0  0.3333329854322144  0.6666669831836741  0.5426737636116074  1.0000
  O   O1        1.0  0.3333329854322144  0.6666669831836741  0.6405723456560029  1.0000
  Ti  Ti1       1.0  0.3333329854322144  0.6666669831836741  0.40732084286820985  1.0000
  Ti  Ti2       1.0  0.6666669847440472  0.3333329859851446  0.4896939062559109  1.0000
