data_image0
_chemical_formula_structural       CHN2STi2
_chemical_formula_sum              "C1 H1 N2 S1 Ti2"
_cell_length_a       3.157470198214763
_cell_length_b       3.1574701982212265
_cell_length_c       25.186242850409016
_cell_angle_alpha    90.0
_cell_angle_beta     90.0
_cell_angle_gamma    119.99999999993229

_space_group_name_H-M_alt    "P 1"
_space_group_IT_number       1

loop_
  _space_group_symop_operation_xyz
  'x, y, z'

loop_
  _atom_site_type_symbol
  _atom_site_label
  _atom_site_symmetry_multiplicity
  _atom_site_fract_x
  _atom_site_fract_y
  _atom_site_fract_z
  _atom_site_occupancy
  C   C1        1.0  0.33333298543221457  0.6666669831836742  0.581169238859732  1.0000
  H   H1        1.0  0.6666669847440474  0.3333329859851446  0.3573379345801807  1.0000
  N   N1        1.0  0.0  0.0  0.43737352181455785  1.0000
  N   N2        1.0  0.33333298543221457  0.6666669831836742  0.5313561782991293  1.0000
  S   S1        1.0  0.33333298543221457  0.6666669831836742  0.6426620654198194  1.0000
  Ti  Ti1       1.0  0.33333298543221457  0.6666669831836742  0.39584289046495785  1.0000
  Ti  Ti2       1.0  0.6666669847440474  0.3333329859851446  0.4803304217491095  1.0000
