data_image0
_chemical_formula_structural       C2N3S2Y2
_chemical_formula_sum              "C2 N3 S2 Y2"
_cell_length_a       3.661506327244207
_cell_length_b       3.6615063272468786
_cell_length_c       29.378911755224802
_cell_angle_alpha    90.0
_cell_angle_beta     90.0
_cell_angle_gamma    119.99999999997587

_space_group_name_H-M_alt    "P 1"
_space_group_IT_number       1

loop_
  _space_group_symop_operation_xyz
  'x, y, z'

loop_
  _atom_site_type_symbol
  _atom_site_label
  _atom_site_symmetry_multiplicity
  _atom_site_fract_x
  _atom_site_fract_y
  _atom_site_fract_z
  _atom_site_occupancy
  C   C1        1.0  0.3333329854322145  0.666666983183674  0.6406199534798173  1.0000
  C   C2        1.0  0.6666669847440475  0.3333329859851446  0.34684881153131863  1.0000
  N   N1        1.0  0.0  0.0  0.5086675421755031  1.0000
  N   N2        1.0  0.3333329854322145  0.666666983183674  0.5980846305479205  1.0000
  N   N3        1.0  0.6666669847440475  0.3333329859851446  0.30634218431863547  1.0000
  S   S1        1.0  0.3333329854322145  0.666666983183674  0.6936578156813646  1.0000
  S   S2        1.0  0.6666669847440475  0.3333329859851446  0.40397436031959855  1.0000
  Y   Y1        1.0  0.3333329854322145  0.666666983183674  0.46296467809956376  1.0000
  Y   Y2        1.0  0.6666669847440475  0.3333329859851446  0.5519217069087303  1.0000
