data_image0
_chemical_formula_structural       C2HNOTi2
_chemical_formula_sum              "C2 H1 N1 O1 Ti2"
_cell_length_a       3.123034507554357
_cell_length_b       3.123034507543944
_cell_length_c       25.02163052880937
_cell_angle_alpha    90.0
_cell_angle_beta     90.0
_cell_angle_gamma    120.00000000011029

_space_group_name_H-M_alt    "P 1"
_space_group_IT_number       1

loop_
  _space_group_symop_operation_xyz
  'x, y, z'

loop_
  _atom_site_type_symbol
  _atom_site_label
  _atom_site_symmetry_multiplicity
  _atom_site_fract_x
  _atom_site_fract_y
  _atom_site_fract_z
  _atom_site_occupancy
  C   C1        1.0  0.0  0.0  0.5568480515267016  1.0000
  C   C2        1.0  0.6666669847440475  0.3333329859851447  0.40714042539863493  1.0000
  H   H1        1.0  0.33333298543221457  0.6666669831836742  0.6403112103490779  1.0000
  N   N1        1.0  0.6666669847440475  0.3333329859851447  0.3596887896509219  1.0000
  O   O1        1.0  0.6666669847440475  0.3333329859851447  0.4605061809553238  1.0000
  Ti  Ti1       1.0  0.33333298543221457  0.6666669831836742  0.5123061183582902  1.0000
  Ti  Ti2       1.0  0.6666669847440475  0.3333329859851447  0.6023647466511848  1.0000
