data_image0
_chemical_formula_structural       CHNOTi2
_chemical_formula_sum              "C1 H1 N1 O1 Ti2"
_cell_length_a       3.136061311356957
_cell_length_b       3.1360613113592297
_cell_length_c       23.662027918978847
_cell_angle_alpha    90.0
_cell_angle_beta     90.0
_cell_angle_gamma    119.99999999997603

_space_group_name_H-M_alt    "P 1"
_space_group_IT_number       1

loop_
  _space_group_symop_operation_xyz
  'x, y, z'

loop_
  _atom_site_type_symbol
  _atom_site_label
  _atom_site_symmetry_multiplicity
  _atom_site_fract_x
  _atom_site_fract_y
  _atom_site_fract_z
  _atom_site_occupancy
  C   C1        1.0  0.0  0.0  0.46618114018656787  1.0000
  H   H1        1.0  0.6666669847440475  0.3333329859851446  0.3803562412662558  1.0000
  N   N1        1.0  0.3333329854322145  0.6666669831836742  0.5643602437936007  1.0000
  O   O1        1.0  0.3333329854322145  0.6666669831836742  0.6196437587337442  1.0000
  Ti  Ti1       1.0  0.3333329854322145  0.6666669831836742  0.42162846370490636  1.0000
  Ti  Ti2       1.0  0.6666669847440475  0.3333329859851446  0.5226918903415105  1.0000
