data_image0
_chemical_formula_structural       HNOTi2
_chemical_formula_sum              "H1 N1 O1 Ti2"
_cell_length_a       3.035030065410532
_cell_length_b       3.0350300654114015
_cell_length_c       22.304039031821954
_cell_angle_alpha    90.0
_cell_angle_beta     90.0
_cell_angle_gamma    119.99999999999052

_space_group_name_H-M_alt    "P 1"
_space_group_IT_number       1

loop_
  _space_group_symop_operation_xyz
  'x, y, z'

loop_
  _atom_site_type_symbol
  _atom_site_label
  _atom_site_symmetry_multiplicity
  _atom_site_fract_x
  _atom_site_fract_y
  _atom_site_fract_z
  _atom_site_occupancy
  H   H1        1.0  0.6666669847440474  0.3333329859851446  0.4035143584155042  1.0000
  N   N1        1.0  0.0  0.0  0.4984263251621278  1.0000
  O   O1        1.0  0.33333298543221457  0.6666669831836742  0.5964856415844958  1.0000
  Ti  Ti1       1.0  0.33333298543221457  0.6666669831836742  0.4461908530032024  1.0000
  Ti  Ti2       1.0  0.6666669847440474  0.3333329859851446  0.5545388399144073  1.0000
