data_image0
_chemical_formula_structural       BrN2OZr2
_chemical_formula_sum              "Br1 N2 O1 Zr2"
_cell_length_a       3.422780185172178
_cell_length_b       3.4227801851690653
_cell_length_c       24.86473825843489
_cell_angle_alpha    90.0
_cell_angle_beta     90.0
_cell_angle_gamma    120.0000000000301

_space_group_name_H-M_alt    "P 1"
_space_group_IT_number       1

loop_
  _space_group_symop_operation_xyz
  'x, y, z'

loop_
  _atom_site_type_symbol
  _atom_site_label
  _atom_site_symmetry_multiplicity
  _atom_site_fract_x
  _atom_site_fract_y
  _atom_site_fract_z
  _atom_site_occupancy
  Br  Br1       1.0  0.6666669847440474  0.3333329859851446  0.3619583647516145  1.0000
  N   N1        1.0  0.0  0.0  0.4874181325815445  1.0000
  N   N2        1.0  0.3333329854322147  0.6666669831836743  0.5848565955907318  1.0000
  O   O1        1.0  0.3333329854322147  0.6666669831836743  0.6380416352483855  1.0000
  Zr  Zr1       1.0  0.3333329854322147  0.6666669831836743  0.44225866160925514  1.0000
  Zr  Zr2       1.0  0.6666669847440474  0.3333329859851446  0.541198299466036  1.0000
