data_image0
_chemical_formula_structural       C2HNOTi2
_chemical_formula_sum              "C2 H1 N1 O1 Ti2"
_cell_length_a       3.124071791342556
_cell_length_b       3.124071791332142
_cell_length_c       25.01041818486653
_cell_angle_alpha    90.0
_cell_angle_beta     90.0
_cell_angle_gamma    120.00000000011026

_space_group_name_H-M_alt    "P 1"
_space_group_IT_number       1

loop_
  _space_group_symop_operation_xyz
  'x, y, z'

loop_
  _atom_site_type_symbol
  _atom_site_label
  _atom_site_symmetry_multiplicity
  _atom_site_fract_x
  _atom_site_fract_y
  _atom_site_fract_z
  _atom_site_occupancy
  C   C1        1.0  0.0  0.0  0.4433160947627641  1.0000
  C   C2        1.0  0.3333329854322145  0.6666669831836742  0.5920242177899004  1.0000
  H   H1        1.0  0.6666669847440475  0.3333329859851446  0.3598500406300995  1.0000
  N   N1        1.0  0.3333329854322145  0.6666669831836742  0.5422106153174865  1.0000
  O   O1        1.0  0.3333329854322145  0.6666669831836742  0.6401499593699005  1.0000
  Ti  Ti1       1.0  0.3333329854322145  0.6666669831836742  0.39805912098537444  1.0000
  Ti  Ti2       1.0  0.6666669847440475  0.3333329859851446  0.4885873716543407  1.0000
