data_image0
_chemical_formula_structural       CHf2N2OS
_chemical_formula_sum              "C1 Hf2 N2 O1 S1"
_cell_length_a       3.3003373167161834
_cell_length_b       3.3003373167091
_cell_length_c       26.104114039120667
_cell_angle_alpha    90.0
_cell_angle_beta     90.0
_cell_angle_gamma    120.00000000007101

_space_group_name_H-M_alt    "P 1"
_space_group_IT_number       1

loop_
  _space_group_symop_operation_xyz
  'x, y, z'

loop_
  _atom_site_type_symbol
  _atom_site_label
  _atom_site_symmetry_multiplicity
  _atom_site_fract_x
  _atom_site_fract_y
  _atom_site_fract_z
  _atom_site_occupancy
  C   C1        1.0  0.3333329854322146  0.6666669831836742  0.6096364919716876  1.0000
  Hf  Hf1       1.0  0.3333329854322146  0.6666669831836742  0.3806127724439528  1.0000
  Hf  Hf2       1.0  0.6666669847440474  0.3333329859851446  0.480950288609742  1.0000
  N   N1        1.0  0.0  0.0  0.4272974082418606  1.0000
  N   N2        1.0  0.3333329854322146  0.6666669831836742  0.6552267590268631  1.0000
  O   O1        1.0  0.6666669847440474  0.3333329859851446  0.34477324097313716  1.0000
  S   S1        1.0  0.3333329854322146  0.6666669831836742  0.5440347350556936  1.0000
