data_image0
_chemical_formula_structural       CClHO2Y2
_chemical_formula_sum              "C1 Cl1 H1 O2 Y2"
_cell_length_a       3.7432358999413213
_cell_length_b       3.7432358999403195
_cell_length_c       25.384653645509395
_cell_angle_alpha    90.0
_cell_angle_beta     90.0
_cell_angle_gamma    120.00000000000884

_space_group_name_H-M_alt    "P 1"
_space_group_IT_number       1

loop_
  _space_group_symop_operation_xyz
  'x, y, z'

loop_
  _atom_site_type_symbol
  _atom_site_label
  _atom_site_symmetry_multiplicity
  _atom_site_fract_x
  _atom_site_fract_y
  _atom_site_fract_z
  _atom_site_occupancy
  C   C1        1.0  0.0  0.0  0.483241428183668  1.0000
  Cl  Cl1       1.0  0.3333329854322145  0.6666669831836741  0.6454550798414334  1.0000
  H   H1        1.0  0.6666669847440474  0.3333329859851445  0.35454492015856676  1.0000
  O   O1        1.0  0.3333329854322145  0.6666669831836741  0.5399225181812093  1.0000
  O   O2        1.0  0.6666669847440474  0.3333329859851445  0.3934443956173461  1.0000
  Y   Y1        1.0  0.3333329854322145  0.6666669831836741  0.4445212943501266  1.0000
  Y   Y2        1.0  0.6666669847440474  0.3333329859851445  0.567072144837709  1.0000
