data_image0
_chemical_formula_structural       Cl2NO2Zr2
_chemical_formula_sum              "Cl2 N1 O2 Zr2"
_cell_length_a       3.290540109564412
_cell_length_b       3.2905401095481435
_cell_length_c       29.280247062827772
_cell_angle_alpha    90.0
_cell_angle_beta     90.0
_cell_angle_gamma    120.00000000016355

_space_group_name_H-M_alt    "P 1"
_space_group_IT_number       1

loop_
  _space_group_symop_operation_xyz
  'x, y, z'

loop_
  _atom_site_type_symbol
  _atom_site_label
  _atom_site_symmetry_multiplicity
  _atom_site_fract_x
  _atom_site_fract_y
  _atom_site_fract_z
  _atom_site_occupancy
  Cl  Cl1       1.0  0.33333298543221457  0.6666669831836742  0.6926255444263038  1.0000
  Cl  Cl2       1.0  0.6666669847440475  0.3333329859851443  0.3073744555736961  1.0000
  N   N1        1.0  0.0  0.0  0.5000000294655358  1.0000
  O   O1        1.0  0.33333298543221457  0.6666669831836742  0.5781631067461968  1.0000
  O   O2        1.0  0.6666669847440476  0.3333329859851446  0.4218368932538109  1.0000
  Zr  Zr1       1.0  0.33333298543221457  0.6666669831836742  0.4528649124112047  1.0000
  Zr  Zr2       1.0  0.6666669847440476  0.3333329859851446  0.5471350871490112  1.0000
