data_image0
_chemical_formula_structural       BrCN2Sc2
_chemical_formula_sum              "Br1 C1 N2 Sc2"
_cell_length_a       3.3947800067024816
_cell_length_b       3.394780006703083
_cell_length_c       24.855806619307636
_cell_angle_alpha    90.0
_cell_angle_beta     90.0
_cell_angle_gamma    119.99999999999415

_space_group_name_H-M_alt    "P 1"
_space_group_IT_number       1

loop_
  _space_group_symop_operation_xyz
  'x, y, z'

loop_
  _atom_site_type_symbol
  _atom_site_label
  _atom_site_symmetry_multiplicity
  _atom_site_fract_x
  _atom_site_fract_y
  _atom_site_fract_z
  _atom_site_occupancy
  Br  Br1       1.0  0.6666669847440474  0.33333298598514444  0.3620884301943727  1.0000
  C   C1        1.0  0.3333329854322145  0.6666669831836742  0.5896297542046183  1.0000
  N   N1        1.0  0.0  0.0  0.4841735154788523  1.0000
  N   N2        1.0  0.3333329854322145  0.6666669831836742  0.6379115698056272  1.0000
  Sc  Sc1       1.0  0.3333329854322145  0.6666669831836742  0.4371371697568567  1.0000
  Sc  Sc2       1.0  0.6666669847440474  0.33333298598514444  0.532962895236214  1.0000
