data_image0
_chemical_formula_structural       ClN2OTi2
_chemical_formula_sum              "Cl1 N2 O1 Ti2"
_cell_length_a       3.1644516861472156
_cell_length_b       3.1644516861473595
_cell_length_c       24.365657297191852
_cell_angle_alpha    90.0
_cell_angle_beta     90.0
_cell_angle_gamma    119.9999999999985

_space_group_name_H-M_alt    "P 1"
_space_group_IT_number       1

loop_
  _space_group_symop_operation_xyz
  'x, y, z'

loop_
  _atom_site_type_symbol
  _atom_site_label
  _atom_site_symmetry_multiplicity
  _atom_site_fract_x
  _atom_site_fract_y
  _atom_site_fract_z
  _atom_site_occupancy
  Cl  Cl1       1.0  0.6666669847440472  0.3333329859851446  0.3693723460945686  1.0000
  N   N1        1.0  0.0  0.0  0.48218506430870967  1.0000
  N   N2        1.0  0.33333298543221435  0.6666669831836741  0.5773660244108227  1.0000
  O   O1        1.0  0.33333298543221435  0.6666669831836741  0.6306276539054314  1.0000
  Ti  Ti1       1.0  0.33333298543221435  0.6666669831836741  0.4398046090568661  1.0000
  Ti  Ti2       1.0  0.6666669847440472  0.3333329859851446  0.5306603727950672  1.0000
