data_image0
_chemical_formula_structural       FHNOTi2
_chemical_formula_sum              "F1 H1 N1 O1 Ti2"
_cell_length_a       3.1960867360457397
_cell_length_b       3.196086736046519
_cell_length_c       23.4535393705721
_cell_angle_alpha    90.0
_cell_angle_beta     90.0
_cell_angle_gamma    119.99999999999193

_space_group_name_H-M_alt    "P 1"
_space_group_IT_number       1

loop_
  _space_group_symop_operation_xyz
  'x, y, z'

loop_
  _atom_site_type_symbol
  _atom_site_label
  _atom_site_symmetry_multiplicity
  _atom_site_fract_x
  _atom_site_fract_y
  _atom_site_fract_z
  _atom_site_occupancy
  F   F1        1.0  0.3333329854322145  0.6666669831836742  0.6162626093316821  1.0000
  H   H1        1.0  0.6666669847440475  0.3333329859851446  0.38373739066831786  1.0000
  N   N1        1.0  0.0  0.0  0.522650032168832  1.0000
  O   O1        1.0  0.6666669847440475  0.3333329859851446  0.4257789723565614  1.0000
  Ti  Ti1       1.0  0.3333329854322145  0.6666669831836742  0.4775173812806485  1.0000
  Ti  Ti2       1.0  0.6666669847440475  0.3333329859851446  0.5656056892949692  1.0000
