data_image0
_chemical_formula_structural       FHNTi2
_chemical_formula_sum              "F1 H1 N1 Ti2"
_cell_length_a       3.187324280379996
_cell_length_b       3.187324280379022
_cell_length_c       22.231384849319777
_cell_angle_alpha    90.0
_cell_angle_beta     90.0
_cell_angle_gamma    120.00000000001012

_space_group_name_H-M_alt    "P 1"
_space_group_IT_number       1

loop_
  _space_group_symop_operation_xyz
  'x, y, z'

loop_
  _atom_site_type_symbol
  _atom_site_label
  _atom_site_symmetry_multiplicity
  _atom_site_fract_x
  _atom_site_fract_y
  _atom_site_fract_z
  _atom_site_occupancy
  F   F1        1.0  0.3333329854322145  0.6666669831836742  0.5951669200546732  1.0000
  H   H1        1.0  0.6666669847440473  0.3333329859851446  0.4048330799453268  1.0000
  N   N1        1.0  0.0  0.0  0.4952687229251077  1.0000
  Ti  Ti1       1.0  0.3333329854322145  0.6666669831836742  0.4477287439877895  1.0000
  Ti  Ti2       1.0  0.6666669847440473  0.3333329859851446  0.5409121119146981  1.0000
