data_image0
_chemical_formula_structural       CHN2SSc2
_chemical_formula_sum              "C1 H1 N2 S1 Sc2"
_cell_length_a       3.2957209130137692
_cell_length_b       3.2957209130117104
_cell_length_c       25.518350496080913
_cell_angle_alpha    90.0
_cell_angle_beta     90.0
_cell_angle_gamma    120.00000000002068

_space_group_name_H-M_alt    "P 1"
_space_group_IT_number       1

loop_
  _space_group_symop_operation_xyz
  'x, y, z'

loop_
  _atom_site_type_symbol
  _atom_site_label
  _atom_site_symmetry_multiplicity
  _atom_site_fract_x
  _atom_site_fract_y
  _atom_site_fract_z
  _atom_site_occupancy
  C   C1        1.0  0.3333329854322145  0.6666669831836742  0.5865124556393392  1.0000
  H   H1        1.0  0.6666669847440474  0.3333329859851446  0.35268737300956077  1.0000
  N   N1        1.0  0.0  0.0  0.43872050606318885  1.0000
  N   N2        1.0  0.3333329854322145  0.6666669831836742  0.5374457856685637  1.0000
  S   S1        1.0  0.3333329854322145  0.6666669831836742  0.6473126269904391  1.0000
  Sc  Sc1       1.0  0.3333329854322145  0.6666669831836742  0.39136987142635477  1.0000
  Sc  Sc2       1.0  0.6666669847440474  0.3333329859851446  0.4870902850147065  1.0000
