data_image0
_chemical_formula_structural       CFN2OTi2
_chemical_formula_sum              "C1 F1 N2 O1 Ti2"
_cell_length_a       3.2225239146429825
_cell_length_b       3.2225239146438707
_cell_length_c       25.0309648461046
_cell_angle_alpha    90.0
_cell_angle_beta     90.0
_cell_angle_gamma    119.99999999999088

_space_group_name_H-M_alt    "P 1"
_space_group_IT_number       1

loop_
  _space_group_symop_operation_xyz
  'x, y, z'

loop_
  _atom_site_type_symbol
  _atom_site_label
  _atom_site_symmetry_multiplicity
  _atom_site_fract_x
  _atom_site_fract_y
  _atom_site_fract_z
  _atom_site_occupancy
  C   C1        1.0  0.6666669847440474  0.3333329859851446  0.40700845849868683  1.0000
  F   F1        1.0  0.3333329854322146  0.6666669831836743  0.6404453421858163  1.0000
  N   N1        1.0  0.0  0.0  0.552371772031336  1.0000
  N   N2        1.0  0.6666669847440474  0.3333329859851446  0.3595546578141837  1.0000
  O   O1        1.0  0.6666669847440474  0.3333329859851446  0.4603627990947781  1.0000
  Ti  Ti1       1.0  0.3333329854322146  0.6666669831836743  0.5110026838054702  1.0000
  Ti  Ti2       1.0  0.6666669847440474  0.3333329859851446  0.5929310128233726  1.0000
