data_image0
_chemical_formula_structural       HHf2NOP
_chemical_formula_sum              "H1 Hf2 N1 O1 P1"
_cell_length_a       3.1949557090446543
_cell_length_b       3.194955709043829
_cell_length_c       24.98872861095542
_cell_angle_alpha    90.0
_cell_angle_beta     90.0
_cell_angle_gamma    120.00000000000854

_space_group_name_H-M_alt    "P 1"
_space_group_IT_number       1

loop_
  _space_group_symop_operation_xyz
  'x, y, z'

loop_
  _atom_site_type_symbol
  _atom_site_label
  _atom_site_symmetry_multiplicity
  _atom_site_fract_x
  _atom_site_fract_y
  _atom_site_fract_z
  _atom_site_occupancy
  H   H1        1.0  0.6666669847440474  0.3333329859851446  0.3601623812127149  1.0000
  Hf  Hf1       1.0  0.3333329854322145  0.6666669831836742  0.39988187606291453  1.0000
  Hf  Hf2       1.0  0.6666669847440474  0.3333329859851446  0.5024497210231064  1.0000
  N   N1        1.0  0.0  0.0  0.45059105531846183  1.0000
  O   O1        1.0  0.3333329854322145  0.6666669831836742  0.6398376187872851  1.0000
  P   P1        1.0  0.3333329854322145  0.6666669831836742  0.5801080925019488  1.0000
