data_image0
_chemical_formula_structural       BrCHf2N2O
_chemical_formula_sum              "Br1 C1 Hf2 N2 O1"
_cell_length_a       3.4056526090139245
_cell_length_b       3.4056526090086625
_cell_length_c       26.00604612576455
_cell_angle_alpha    90.0
_cell_angle_beta     90.0
_cell_angle_gamma    120.0000000000511

_space_group_name_H-M_alt    "P 1"
_space_group_IT_number       1

loop_
  _space_group_symop_operation_xyz
  'x, y, z'

loop_
  _atom_site_type_symbol
  _atom_site_label
  _atom_site_symmetry_multiplicity
  _atom_site_fract_x
  _atom_site_fract_y
  _atom_site_fract_z
  _atom_site_occupancy
  Br  Br1       1.0  0.3333329854322145  0.6666669831836742  0.6539266308889771  1.0000
  C   C1        1.0  0.6666669847440475  0.3333329859851445  0.3917435815809284  1.0000
  Hf  Hf1       1.0  0.3333329854322145  0.6666669831836742  0.4945312986091221  1.0000
  Hf  Hf2       1.0  0.6666669847440475  0.3333329859851445  0.5793137324202376  1.0000
  N   N1        1.0  0.0  0.0  0.5353272415581531  1.0000
  N   N2        1.0  0.6666669847440475  0.3333329859851445  0.3460733691110228  1.0000
  O   O1        1.0  0.6666669847440475  0.3333329859851445  0.4432561626549808  1.0000
