data_image0
_chemical_formula_structural       Br2NY2
_chemical_formula_sum              "Br2 N1 Y2"
_cell_length_a       3.6785023303472832
_cell_length_b       3.6785023303552737
_cell_length_c       24.4936547554458
_cell_angle_alpha    90.0
_cell_angle_beta     90.0
_cell_angle_gamma    119.99999999992814

_space_group_name_H-M_alt    "P 1"
_space_group_IT_number       1

loop_
  _space_group_symop_operation_xyz
  'x, y, z'

loop_
  _atom_site_type_symbol
  _atom_site_label
  _atom_site_symmetry_multiplicity
  _atom_site_fract_x
  _atom_site_fract_y
  _atom_site_fract_z
  _atom_site_occupancy
  Br  Br1       1.0  0.3333329854322146  0.6666669831836742  0.6325578975510389  1.0000
  Br  Br2       1.0  0.6666669847440473  0.3333329859851447  0.36744210244896125  1.0000
  N   N1        1.0  0.0  0.0  0.5000000281856294  1.0000
  Y   Y1        1.0  0.3333329854322146  0.6666669831836742  0.4472927034466034  1.0000
  Y   Y2        1.0  0.6666669847440473  0.3333329859851447  0.552707296132708  1.0000
