data_image0
_chemical_formula_structural       C3N2STi2
_chemical_formula_sum              "C3 N2 S1 Ti2"
_cell_length_a       3.2724700497673975
_cell_length_b       3.2724700497571106
_cell_length_c       27.2074118409209
_cell_angle_alpha    90.0
_cell_angle_beta     90.0
_cell_angle_gamma    120.00000000010398

_space_group_name_H-M_alt    "P 1"
_space_group_IT_number       1

loop_
  _space_group_symop_operation_xyz
  'x, y, z'

loop_
  _atom_site_type_symbol
  _atom_site_label
  _atom_site_symmetry_multiplicity
  _atom_site_fract_x
  _atom_site_fract_y
  _atom_site_fract_z
  _atom_site_occupancy
  C   C1        1.0  0.0  0.0  0.5342106593524951  1.0000
  C   C2        1.0  0.3333329854322145  0.6666669831836742  0.6249713218843145  1.0000
  C   C3        1.0  0.6666669847440473  0.3333329859851446  0.37457155877514553  1.0000
  N   N1        1.0  0.3333329854322145  0.6666669831836742  0.6692077860025007  1.0000
  N   N2        1.0  0.6666669847440473  0.3333329859851446  0.3307922139974992  1.0000
  S   S1        1.0  0.6666669847440473  0.3333329859851446  0.436163866063963  1.0000
  Ti  Ti1       1.0  0.3333329854322145  0.6666669831836742  0.4933729275753988  1.0000
  Ti  Ti2       1.0  0.6666669847440473  0.3333329859851446  0.5743237326975543  1.0000
