data_image0
_chemical_formula_structural       BrCOPSc2
_chemical_formula_sum              "Br1 C1 O1 P1 Sc2"
_cell_length_a       3.44506118763232
_cell_length_b       3.445061187630074
_cell_length_c       25.788038155800916
_cell_angle_alpha    90.0
_cell_angle_beta     90.0
_cell_angle_gamma    120.00000000002157

_space_group_name_H-M_alt    "P 1"
_space_group_IT_number       1

loop_
  _space_group_symop_operation_xyz
  'x, y, z'

loop_
  _atom_site_type_symbol
  _atom_site_label
  _atom_site_symmetry_multiplicity
  _atom_site_fract_x
  _atom_site_fract_y
  _atom_site_fract_z
  _atom_site_occupancy
  Br  Br1       1.0  0.6666669847440474  0.3333329859851446  0.3489990182900162  1.0000
  C   C1        1.0  0.0  0.0  0.469137321282873  1.0000
  O   O1        1.0  0.3333329854322145  0.6666669831836742  0.6510009817099838  1.0000
  P   P1        1.0  0.3333329854322145  0.6666669831836742  0.5930079459722665  1.0000
  Sc  Sc1       1.0  0.3333329854322145  0.6666669831836742  0.4212421252710914  1.0000
  Sc  Sc2       1.0  0.6666669847440474  0.3333329859851446  0.515336989454961  1.0000
