data_image0
_chemical_formula_structural       C2FHf2N
_chemical_formula_sum              "C2 F1 Hf2 N1"
_cell_length_a       3.342623157311054
_cell_length_b       3.342623157310261
_cell_length_c       24.36354373670192
_cell_angle_alpha    90.0
_cell_angle_beta     90.0
_cell_angle_gamma    120.00000000000786

_space_group_name_H-M_alt    "P 1"
_space_group_IT_number       1

loop_
  _space_group_symop_operation_xyz
  'x, y, z'

loop_
  _atom_site_type_symbol
  _atom_site_label
  _atom_site_symmetry_multiplicity
  _atom_site_fract_x
  _atom_site_fract_y
  _atom_site_fract_z
  _atom_site_occupancy
  C   C1        1.0  0.0  0.0  0.4695433747974462  1.0000
  C   C2        1.0  0.3333329854322146  0.6666669831836742  0.5810643599623826  1.0000
  F   F1        1.0  0.6666669847440475  0.3333329859851446  0.3694043894953651  1.0000
  Hf  Hf1       1.0  0.3333329854322146  0.6666669831836742  0.4224451862697746  1.0000
  Hf  Hf2       1.0  0.6666669847440475  0.3333329859851446  0.5213255175865641  1.0000
  N   N1        1.0  0.3333329854322146  0.6666669831836742  0.6305956105046349  1.0000
