data_image0
_chemical_formula_structural       Hf2N2O2P
_chemical_formula_sum              "Hf2 N2 O2 P1"
_cell_length_a       3.2476682701228605
_cell_length_b       3.2476682701147066
_cell_length_c       26.493669784259364
_cell_angle_alpha    90.0
_cell_angle_beta     90.0
_cell_angle_gamma    120.00000000008306

_space_group_name_H-M_alt    "P 1"
_space_group_IT_number       1

loop_
  _space_group_symop_operation_xyz
  'x, y, z'

loop_
  _atom_site_type_symbol
  _atom_site_label
  _atom_site_symmetry_multiplicity
  _atom_site_fract_x
  _atom_site_fract_y
  _atom_site_fract_z
  _atom_site_occupancy
  Hf  Hf1       1.0  0.3333329854322145  0.6666669831836742  0.4686860884661059  1.0000
  Hf  Hf2       1.0  0.6666669847440474  0.3333329859851446  0.5667662470290444  1.0000
  N   N1        1.0  0.0  0.0  0.5173529567861826  1.0000
  N   N2        1.0  0.3333329854322145  0.6666669831836742  0.6098090954551096  1.0000
  O   O1        1.0  0.3333329854322145  0.6666669831836742  0.6602962113860438  1.0000
  O   O2        1.0  0.6666669847440474  0.3333329859851446  0.33970378861395617  1.0000
  P   P1        1.0  0.6666669847440474  0.3333329859851446  0.3960390129871659  1.0000
