data_image0
_chemical_formula_structural       ClHNOSc2
_chemical_formula_sum              "Cl1 H1 N1 O1 Sc2"
_cell_length_a       3.243314965669048
_cell_length_b       3.2433149656685765
_cell_length_c       27.34095035064489
_cell_angle_alpha    90.0
_cell_angle_beta     90.0
_cell_angle_gamma    120.00000000000483

_space_group_name_H-M_alt    "P 1"
_space_group_IT_number       1

loop_
  _space_group_symop_operation_xyz
  'x, y, z'

loop_
  _atom_site_type_symbol
  _atom_site_label
  _atom_site_symmetry_multiplicity
  _atom_site_fract_x
  _atom_site_fract_y
  _atom_site_fract_z
  _atom_site_occupancy
  Cl  Cl1       1.0  0.3333329854322145  0.6666669831836742  0.6708234393985608  1.0000
  H   H1        1.0  0.6666669847440474  0.3333329859851446  0.3291765606014393  1.0000
  N   N1        1.0  0.0  0.0  0.4062781306940645  1.0000
  O   O1        1.0  0.3333329854322145  0.6666669831836742  0.4913738541330456  1.0000
  Sc  Sc1       1.0  0.3333329854322145  0.6666669831836742  0.3686759730032188  1.0000
  Sc  Sc2       1.0  0.6666669847440474  0.3333329859851446  0.4650544470199399  1.0000
