data_image0
_chemical_formula_structural       C2NOSZr2
_chemical_formula_sum              "C2 N1 O1 S1 Zr2"
_cell_length_a       3.357870196470913
_cell_length_b       3.3578701964662603
_cell_length_c       25.80992187072668
_cell_angle_alpha    90.0
_cell_angle_beta     90.0
_cell_angle_gamma    120.00000000004584

_space_group_name_H-M_alt    "P 1"
_space_group_IT_number       1

loop_
  _space_group_symop_operation_xyz
  'x, y, z'

loop_
  _atom_site_type_symbol
  _atom_site_label
  _atom_site_symmetry_multiplicity
  _atom_site_fract_x
  _atom_site_fract_y
  _atom_site_fract_z
  _atom_site_occupancy
  C   C1        1.0  0.0  0.0  0.44010574151963283  1.0000
  C   C2        1.0  0.3333329854322146  0.6666669831836742  0.591168932537274  1.0000
  N   N1        1.0  0.3333329854322146  0.6666669831836742  0.5424306678530355  1.0000
  O   O1        1.0  0.6666669847440474  0.3333329859851446  0.348703109024429  1.0000
  S   S1        1.0  0.3333329854322146  0.6666669831836742  0.651296890975571  1.0000
  Zr  Zr1       1.0  0.3333329854322146  0.6666669831836742  0.3852306841015084  1.0000
  Zr  Zr2       1.0  0.6666669847440474  0.3333329859851446  0.48931763733532874  1.0000
