data_image0
_chemical_formula_structural       BrC2NSSc2
_chemical_formula_sum              "Br1 C2 N1 S1 Sc2"
_cell_length_a       3.4781247291241293
_cell_length_b       3.4781247291064576
_cell_length_c       26.40083515769865
_cell_angle_alpha    90.0
_cell_angle_beta     90.0
_cell_angle_gamma    120.00000000016807

_space_group_name_H-M_alt    "P 1"
_space_group_IT_number       1

loop_
  _space_group_symop_operation_xyz
  'x, y, z'

loop_
  _atom_site_type_symbol
  _atom_site_label
  _atom_site_symmetry_multiplicity
  _atom_site_fract_x
  _atom_site_fract_y
  _atom_site_fract_z
  _atom_site_occupancy
  Br  Br1       1.0  0.6666669847440475  0.3333329859851446  0.3408983066725274  1.0000
  C   C1        1.0  0.0  0.0  0.4573468753348932  1.0000
  C   C2        1.0  0.33333298543221457  0.6666669831836742  0.600116410645015  1.0000
  N   N1        1.0  0.33333298543221457  0.6666669831836742  0.5528695337985547  1.0000
  S   S1        1.0  0.33333298543221457  0.6666669831836742  0.6591016933274726  1.0000
  Sc  Sc1       1.0  0.33333298543221457  0.6666669831836742  0.4113352542250323  1.0000
  Sc  Sc2       1.0  0.6666669847440475  0.3333329859851446  0.5044213860281429  1.0000
