data_image0
_chemical_formula_structural       ClHNOY2
_chemical_formula_sum              "Cl1 H1 N1 O1 Y2"
_cell_length_a       3.55806610380026
_cell_length_b       3.55806610380679
_cell_length_c       24.729886399444535
_cell_angle_alpha    90.0
_cell_angle_beta     90.0
_cell_angle_gamma    119.99999999993928

_space_group_name_H-M_alt    "P 1"
_space_group_IT_number       1

loop_
  _space_group_symop_operation_xyz
  'x, y, z'

loop_
  _atom_site_type_symbol
  _atom_site_label
  _atom_site_symmetry_multiplicity
  _atom_site_fract_x
  _atom_site_fract_y
  _atom_site_fract_z
  _atom_site_occupancy
  Cl  Cl1       1.0  0.3333329854322146  0.6666669831836743  0.6360678793816801  1.0000
  H   H1        1.0  0.6666669847440474  0.3333329859851447  0.36393212061832003  1.0000
  N   N1        1.0  0.0  0.0  0.5089611723623312  1.0000
  O   O1        1.0  0.6666669847440474  0.3333329859851447  0.40386222180295384  1.0000
  Y   Y1        1.0  0.3333329854322146  0.6666669831836743  0.45588362873865684  1.0000
  Y   Y2        1.0  0.6666669847440474  0.3333329859851447  0.5630672137256371  1.0000
