data_image0
_chemical_formula_structural       CHN2OSc2
_chemical_formula_sum              "C1 H1 N2 O1 Sc2"
_cell_length_a       3.2551578771205643
_cell_length_b       3.2551578771235334
_cell_length_c       25.206463992906713
_cell_angle_alpha    90.0
_cell_angle_beta     90.0
_cell_angle_gamma    119.99999999996984

_space_group_name_H-M_alt    "P 1"
_space_group_IT_number       1

loop_
  _space_group_symop_operation_xyz
  'x, y, z'

loop_
  _atom_site_type_symbol
  _atom_site_label
  _atom_site_symmetry_multiplicity
  _atom_site_fract_x
  _atom_site_fract_y
  _atom_site_fract_z
  _atom_site_occupancy
  C   C1        1.0  0.6666669847440476  0.33333298598514477  0.404159122295862  1.0000
  H   H1        1.0  0.3333329854322147  0.6666669831836743  0.6429487292413301  1.0000
  N   N1        1.0  0.0  0.0  0.5545042345593533  1.0000
  N   N2        1.0  0.6666669847440476  0.33333298598514477  0.3570512707586699  1.0000
  O   O1        1.0  0.6666669847440476  0.33333298598514477  0.45719010925086356  1.0000
  Sc  Sc1       1.0  0.3333329854322147  0.6666669831836743  0.5076715717627924  1.0000
  Sc  Sc2       1.0  0.6666669847440476  0.33333298598514477  0.6042516434306096  1.0000
