data_image0
_chemical_formula_structural       CCl2Hf2
_chemical_formula_sum              "C1 Cl2 Hf2"
_cell_length_a       3.4041064414807494
_cell_length_b       3.404106441475006
_cell_length_c       23.909386011927726
_cell_angle_alpha    90.0
_cell_angle_beta     90.0
_cell_angle_gamma    120.00000000005582

_space_group_name_H-M_alt    "P 1"
_space_group_IT_number       1

loop_
  _space_group_symop_operation_xyz
  'x, y, z'

loop_
  _atom_site_type_symbol
  _atom_site_label
  _atom_site_symmetry_multiplicity
  _atom_site_fract_x
  _atom_site_fract_y
  _atom_site_fract_z
  _atom_site_occupancy
  C   C1        1.0  0.0  0.0  0.5000000337169834  1.0000
  Cl  Cl1       1.0  0.3333329854322145  0.6666669831836742  0.6235787905423356  1.0000
  Cl  Cl2       1.0  0.6666669847440474  0.33333298598514444  0.37642120945766444  1.0000
  Hf  Hf1       1.0  0.3333329854322145  0.6666669831836742  0.4512038596669178  1.0000
  Hf  Hf2       1.0  0.6666669847440474  0.33333298598514444  0.5487961398298344  1.0000
