data_image0
_chemical_formula_structural       CCl2Sc2
_chemical_formula_sum              "C1 Cl2 Sc2"
_cell_length_a       3.4502415010346477
_cell_length_b       3.450241501031179
_cell_length_c       23.810356829288345
_cell_angle_alpha    90.0
_cell_angle_beta     90.0
_cell_angle_gamma    120.00000000003325

_space_group_name_H-M_alt    "P 1"
_space_group_IT_number       1

loop_
  _space_group_symop_operation_xyz
  'x, y, z'

loop_
  _atom_site_type_symbol
  _atom_site_label
  _atom_site_symmetry_multiplicity
  _atom_site_fract_x
  _atom_site_fract_y
  _atom_site_fract_z
  _atom_site_occupancy
  C   C1        1.0  0.0  0.0  0.5000000329578224  1.0000
  Cl  Cl1       1.0  0.3333329854322145  0.6666669831836743  0.6220132245590964  1.0000
  Cl  Cl2       1.0  0.6666669847440474  0.3333329859851446  0.3779867754409036  1.0000
  Sc  Sc1       1.0  0.3333329854322145  0.6666669831836743  0.44824291012802503  1.0000
  Sc  Sc2       1.0  0.6666669847440474  0.3333329859851446  0.5517570893800585  1.0000
