data_image0
_chemical_formula_structural       CFN2OY2
_chemical_formula_sum              "C1 F1 N2 O1 Y2"
_cell_length_a       3.52923397522547
_cell_length_b       3.529233975213749
_cell_length_c       25.723347359221794
_cell_angle_alpha    90.0
_cell_angle_beta     90.0
_cell_angle_gamma    120.00000000010986

_space_group_name_H-M_alt    "P 1"
_space_group_IT_number       1

loop_
  _space_group_symop_operation_xyz
  'x, y, z'

loop_
  _atom_site_type_symbol
  _atom_site_label
  _atom_site_symmetry_multiplicity
  _atom_site_fract_x
  _atom_site_fract_y
  _atom_site_fract_z
  _atom_site_occupancy
  C   C1        1.0  0.6666669847440474  0.3333329859851446  0.3960800047237718  1.0000
  F   F1        1.0  0.3333329854322145  0.6666669831836742  0.6501232956070351  1.0000
  N   N1        1.0  0.0  0.0  0.5519601133544865  1.0000
  N   N2        1.0  0.6666669847440474  0.3333329859851446  0.34987670439296503  1.0000
  O   O1        1.0  0.6666669847440474  0.3333329859851446  0.44794232878764256  1.0000
  Y   Y1        1.0  0.3333329854322145  0.6666669831836742  0.4998316929640759  1.0000
  Y   Y2        1.0  0.6666669847440474  0.3333329859851446  0.6027264131308294  1.0000
