data_image0
_chemical_formula_structural       C2NOSZr2
_chemical_formula_sum              "C2 N1 O1 S1 Zr2"
_cell_length_a       3.4098153493358643
_cell_length_b       3.409815349336043
_cell_length_c       26.153085099228356
_cell_angle_alpha    90.0
_cell_angle_beta     90.0
_cell_angle_gamma    119.99999999999828

_space_group_name_H-M_alt    "P 1"
_space_group_IT_number       1

loop_
  _space_group_symop_operation_xyz
  'x, y, z'

loop_
  _atom_site_type_symbol
  _atom_site_label
  _atom_site_symmetry_multiplicity
  _atom_site_fract_x
  _atom_site_fract_y
  _atom_site_fract_z
  _atom_site_occupancy
  C   C1        1.0  0.0  0.0  0.432828332795765  1.0000
  C   C2        1.0  0.3333329854322145  0.6666669831836742  0.6103356676411816  1.0000
  N   N1        1.0  0.3333329854322145  0.6666669831836742  0.6558723391197336  1.0000
  O   O1        1.0  0.6666669847440474  0.3333329859851446  0.3441276608802663  1.0000
  S   S1        1.0  0.3333329854322145  0.6666669831836742  0.5461387198455047  1.0000
  Zr  Zr1       1.0  0.3333329854322145  0.6666669831836742  0.3788942852196039  1.0000
  Zr  Zr2       1.0  0.6666669847440474  0.3333329859851446  0.4806508083171506  1.0000
