data_image0
_chemical_formula_structural       CHO2PTi2
_chemical_formula_sum              "C1 H1 O2 P1 Ti2"
_cell_length_a       3.1056482491970083
_cell_length_b       3.105648249192743
_cell_length_c       25.928701272878776
_cell_angle_alpha    90.0
_cell_angle_beta     90.0
_cell_angle_gamma    120.00000000004543

_space_group_name_H-M_alt    "P 1"
_space_group_IT_number       1

loop_
  _space_group_symop_operation_xyz
  'x, y, z'

loop_
  _atom_site_type_symbol
  _atom_site_label
  _atom_site_symmetry_multiplicity
  _atom_site_fract_x
  _atom_site_fract_y
  _atom_site_fract_z
  _atom_site_occupancy
  C   C1        1.0  0.0  0.0  0.4781227079849118  1.0000
  H   H1        1.0  0.6666669847440472  0.3333329859851446  0.3471056997912167  1.0000
  O   O1        1.0  0.33333298543221457  0.6666669831836742  0.6528943002087833  1.0000
  O   O2        1.0  0.6666669847440472  0.3333329859851446  0.38522477671429656  1.0000
  P   P1        1.0  0.33333298543221457  0.6666669831836742  0.5954207997563665  1.0000
  Ti  Ti1       1.0  0.33333298543221457  0.6666669831836742  0.43310673890623214  1.0000
  Ti  Ti2       1.0  0.6666669847440472  0.3333329859851446  0.5229269556036209  1.0000
