data_image0
_chemical_formula_structural       C3N2S2Y2
_chemical_formula_sum              "C3 N2 S2 Y2"
_cell_length_a       3.6826774897690706
_cell_length_b       3.6826774897702643
_cell_length_c       29.086844731144225
_cell_angle_alpha    90.0
_cell_angle_beta     90.0
_cell_angle_gamma    119.99999999998929

_space_group_name_H-M_alt    "P 1"
_space_group_IT_number       1

loop_
  _space_group_symop_operation_xyz
  'x, y, z'

loop_
  _atom_site_type_symbol
  _atom_site_label
  _atom_site_symmetry_multiplicity
  _atom_site_fract_x
  _atom_site_fract_y
  _atom_site_fract_z
  _atom_site_occupancy
  C   C1        1.0  0.0  0.0  0.5000000238576896  1.0000
  C   C2        1.0  0.33333298543221446  0.6666669831836742  0.6369045488397556  1.0000
  C   C3        1.0  0.6666669847440474  0.3333329859851446  0.3630954511602446  1.0000
  N   N1        1.0  0.33333298543221446  0.6666669831836742  0.5940593861886374  1.0000
  N   N2        1.0  0.6666669847440474  0.3333329859851446  0.40594061416481  1.0000
  S   S1        1.0  0.33333298543221446  0.6666669831836742  0.6905817704467817  1.0000
  S   S2        1.0  0.6666669847440474  0.3333329859851446  0.3094182295532181  1.0000
  Y   Y1        1.0  0.33333298543221446  0.6666669831836742  0.45317345093197225  1.0000
  Y   Y2        1.0  0.6666669847440474  0.3333329859851446  0.5468265490680217  1.0000
