data_image0
_chemical_formula_structural       BrClNOTi2
_chemical_formula_sum              "Br1 Cl1 N1 O1 Ti2"
_cell_length_a       3.1254115550181925
_cell_length_b       3.1254115550183457
_cell_length_c       26.683204997765635
_cell_angle_alpha    90.0
_cell_angle_beta     90.0
_cell_angle_gamma    119.9999999999984

_space_group_name_H-M_alt    "P 1"
_space_group_IT_number       1

loop_
  _space_group_symop_operation_xyz
  'x, y, z'

loop_
  _atom_site_type_symbol
  _atom_site_label
  _atom_site_symmetry_multiplicity
  _atom_site_fract_x
  _atom_site_fract_y
  _atom_site_fract_z
  _atom_site_occupancy
  Br  Br1       1.0  0.6666669847440474  0.3333329859851446  0.3372908164800154  1.0000
  Cl  Cl1       1.0  0.3333329854322146  0.6666669831836742  0.6627091835199845  1.0000
  N   N1        1.0  0.0  0.0  0.449700883854556  1.0000
  O   O1        1.0  0.3333329854322146  0.6666669831836742  0.5297023606177078  1.0000
  Ti  Ti1       1.0  0.3333329854322146  0.6666669831836742  0.407893232374801  1.0000
  Ti  Ti2       1.0  0.6666669847440474  0.3333329859851446  0.4972274262671249  1.0000
