data_image0
_chemical_formula_structural       C2ClHf2NOS
_chemical_formula_sum              "C2 Cl1 Hf2 N1 O1 S1"
_cell_length_a       3.2953996428248686
_cell_length_b       3.2953996428252856
_cell_length_c       29.108149895924676
_cell_angle_alpha    90.0
_cell_angle_beta     90.0
_cell_angle_gamma    119.99999999999582

_space_group_name_H-M_alt    "P 1"
_space_group_IT_number       1

loop_
  _space_group_symop_operation_xyz
  'x, y, z'

loop_
  _atom_site_type_symbol
  _atom_site_label
  _atom_site_symmetry_multiplicity
  _atom_site_fract_x
  _atom_site_fract_y
  _atom_site_fract_z
  _atom_site_occupancy
  C   C1        1.0  0.0  0.0  0.4942844670153663  1.0000
  C   C2        1.0  0.6666669847440474  0.3333329859851446  0.3623395643753382  1.0000
  Cl  Cl1       1.0  0.33333298543221446  0.6666669831836742  0.6908082433208833  1.0000
  Hf  Hf1       1.0  0.33333298543221446  0.6666669831836742  0.4512677678837511  1.0000
  Hf  Hf2       1.0  0.6666669847440474  0.3333329859851446  0.5430177164705492  1.0000
  N   N1        1.0  0.6666669847440474  0.3333329859851446  0.4060023194501061  1.0000
  O   O1        1.0  0.33333298543221446  0.6666669831836742  0.5729119089321855  1.0000
  S   S1        1.0  0.6666669847440474  0.3333329859851446  0.3091917566791167  1.0000
