data_image0
_chemical_formula_structural       CHN2O2Sc2
_chemical_formula_sum              "C1 H1 N2 O2 Sc2"
_cell_length_a       3.2647075333781026
_cell_length_b       3.2647075333575937
_cell_length_c       26.45072090653569
_cell_angle_alpha    90.0
_cell_angle_beta     90.0
_cell_angle_gamma    120.00000000020782

_space_group_name_H-M_alt    "P 1"
_space_group_IT_number       1

loop_
  _space_group_symop_operation_xyz
  'x, y, z'

loop_
  _atom_site_type_symbol
  _atom_site_label
  _atom_site_symmetry_multiplicity
  _atom_site_fract_x
  _atom_site_fract_y
  _atom_site_fract_z
  _atom_site_occupancy
  C   C1        1.0  0.3333329854322145  0.6666669831836742  0.6142055409730405  1.0000
  H   H1        1.0  0.6666669847440474  0.3333329859851446  0.3402553764716559  1.0000
  N   N1        1.0  0.0  0.0  0.4697276636532998  1.0000
  N   N2        1.0  0.3333329854322145  0.6666669831836742  0.5671514521430101  1.0000
  O   O1        1.0  0.3333329854322145  0.6666669831836742  0.6597446235283442  1.0000
  O   O2        1.0  0.6666669847440474  0.3333329859851446  0.3775247598476942  1.0000
  Sc  Sc1       1.0  0.3333329854322145  0.6666669831836742  0.42364940140596946  1.0000
  Sc  Sc2       1.0  0.6666669847440474  0.3333329859851446  0.5159892095610603  1.0000
