data_image0
_chemical_formula_structural       CClNO2Sc2
_chemical_formula_sum              "C1 Cl1 N1 O2 Sc2"
_cell_length_a       3.3139864004065966
_cell_length_b       3.3139864004023787
_cell_length_c       27.75532907637012
_cell_angle_alpha    90.0
_cell_angle_beta     90.0
_cell_angle_gamma    120.0000000000421

_space_group_name_H-M_alt    "P 1"
_space_group_IT_number       1

loop_
  _space_group_symop_operation_xyz
  'x, y, z'

loop_
  _atom_site_type_symbol
  _atom_site_label
  _atom_site_symmetry_multiplicity
  _atom_site_fract_x
  _atom_site_fract_y
  _atom_site_fract_z
  _atom_site_occupancy
  C   C1        1.0  0.0  0.0  0.5406624089202963  1.0000
  Cl  Cl1       1.0  0.6666669847440474  0.3333329859851446  0.3242620534325524  1.0000
  N   N1        1.0  0.3333329854322145  0.6666669831836742  0.6298571645496455  1.0000
  O   O1        1.0  0.3333329854322145  0.6666669831836742  0.6757379465674479  1.0000
  O   O2        1.0  0.6666669847440474  0.3333329859851446  0.4554013381474185  1.0000
  Sc  Sc1       1.0  0.3333329854322145  0.6666669831836742  0.47876768467743447  1.0000
  Sc  Sc2       1.0  0.6666669847440474  0.3333329859851446  0.5810894238918141  1.0000
