data_image0
_chemical_formula_structural       BrCNOTi2
_chemical_formula_sum              "Br1 C1 N1 O1 Ti2"
_cell_length_a       3.2582939960138004
_cell_length_b       3.2582939960052903
_cell_length_c       24.408866896482476
_cell_angle_alpha    90.0
_cell_angle_beta     90.0
_cell_angle_gamma    120.0000000000864

_space_group_name_H-M_alt    "P 1"
_space_group_IT_number       1

loop_
  _space_group_symop_operation_xyz
  'x, y, z'

loop_
  _atom_site_type_symbol
  _atom_site_label
  _atom_site_symmetry_multiplicity
  _atom_site_fract_x
  _atom_site_fract_y
  _atom_site_fract_z
  _atom_site_occupancy
  Br  Br1       1.0  0.6666669847440475  0.3333329859851446  0.3687184676850762  1.0000
  C   C1        1.0  0.0  0.0  0.48598188871513326  1.0000
  N   N1        1.0  0.3333329854322145  0.6666669831836742  0.5774068185700328  1.0000
  O   O1        1.0  0.3333329854322145  0.6666669831836742  0.6312815323149239  1.0000
  Ti  Ti1       1.0  0.3333329854322145  0.6666669831836742  0.4449451069694099  1.0000
  Ti  Ti2       1.0  0.6666669847440475  0.3333329859851446  0.5405629441874608  1.0000
