data_image0
_chemical_formula_structural       C2Hf2NO2
_chemical_formula_sum              "C2 Hf2 N1 O2"
_cell_length_a       3.281124050728758
_cell_length_b       3.2811240507192876
_cell_length_c       25.444645668527425
_cell_angle_alpha    90.0
_cell_angle_beta     90.0
_cell_angle_gamma    120.00000000009548

_space_group_name_H-M_alt    "P 1"
_space_group_IT_number       1

loop_
  _space_group_symop_operation_xyz
  'x, y, z'

loop_
  _atom_site_type_symbol
  _atom_site_label
  _atom_site_symmetry_multiplicity
  _atom_site_fract_x
  _atom_site_fract_y
  _atom_site_fract_z
  _atom_site_occupancy
  C   C1        1.0  0.0  0.0  0.4457885602042932  1.0000
  C   C2        1.0  0.33333298543221446  0.6666669831836742  0.5989480030106018  1.0000
  Hf  Hf1       1.0  0.33333298543221446  0.6666669831836742  0.390998486336776  1.0000
  Hf  Hf2       1.0  0.6666669847440473  0.3333329859851446  0.4939244513639472  1.0000
  N   N1        1.0  0.33333298543221446  0.6666669831836742  0.5498082773875915  1.0000
  O   O1        1.0  0.33333298543221446  0.6666669831836742  0.646291006868603  1.0000
  O   O2        1.0  0.6666669847440473  0.3333329859851446  0.3537089931313971  1.0000
