data_image0
_chemical_formula_structural       ClN2O2Ti2
_chemical_formula_sum              "Cl1 N2 O2 Ti2"
_cell_length_a       3.0949353064806764
_cell_length_b       3.094935306480603
_cell_length_c       29.30594329930948
_cell_angle_alpha    90.0
_cell_angle_beta     90.0
_cell_angle_gamma    120.00000000000078

_space_group_name_H-M_alt    "P 1"
_space_group_IT_number       1

loop_
  _space_group_symop_operation_xyz
  'x, y, z'

loop_
  _atom_site_type_symbol
  _atom_site_label
  _atom_site_symmetry_multiplicity
  _atom_site_fract_x
  _atom_site_fract_y
  _atom_site_fract_z
  _atom_site_occupancy
  Cl  Cl1       1.0  0.6666669847440474  0.3333329859851446  0.3071049414134389  1.0000
  N   N1        1.0  0.0  0.0  0.569701847307412  1.0000
  N   N2        1.0  0.3333329854322145  0.6666669831836742  0.647915064988564  1.0000
  O   O1        1.0  0.3333329854322145  0.6666669831836742  0.6928950585865613  1.0000
  O   O2        1.0  0.6666669847440474  0.3333329859851446  0.4983780536575485  1.0000
  Ti  Ti1       1.0  0.3333329854322145  0.6666669831836742  0.5279413871985893  1.0000
  Ti  Ti2       1.0  0.6666669847440474  0.3333329859851446  0.6150613581258958  1.0000
