data_image0
_chemical_formula_structural       C3Hf2N2OS
_chemical_formula_sum              "C3 Hf2 N2 O1 S1"
_cell_length_a       3.437983416777221
_cell_length_b       3.437983416776948
_cell_length_c       28.748170814115863
_cell_angle_alpha    90.0
_cell_angle_beta     90.0
_cell_angle_gamma    120.00000000000264

_space_group_name_H-M_alt    "P 1"
_space_group_IT_number       1

loop_
  _space_group_symop_operation_xyz
  'x, y, z'

loop_
  _atom_site_type_symbol
  _atom_site_label
  _atom_site_symmetry_multiplicity
  _atom_site_fract_x
  _atom_site_fract_y
  _atom_site_fract_z
  _atom_site_occupancy
  C   C1        1.0  0.0  0.0  0.4860549812850062  1.0000
  C   C2        1.0  0.3333329854322145  0.6666669831836742  0.6455268669201852  1.0000
  C   C3        1.0  0.6666669847440474  0.3333329859851446  0.35439231705879154  1.0000
  Hf  Hf1       1.0  0.3333329854322145  0.6666669831836742  0.4480779868019769  1.0000
  Hf  Hf2       1.0  0.6666669847440474  0.3333329859851446  0.5290966129636323  1.0000
  N   N1        1.0  0.3333329854322145  0.6666669831836742  0.6869366034384059  1.0000
  N   N2        1.0  0.6666669847440474  0.3333329859851446  0.313063396561594  1.0000
  O   O1        1.0  0.6666669847440474  0.3333329859851446  0.4010191134825467  1.0000
  S   S1        1.0  0.3333329854322145  0.6666669831836742  0.5868049396689776  1.0000
