data_image0
_chemical_formula_structural       BrClNOSc2
_chemical_formula_sum              "Br1 Cl1 N1 O1 Sc2"
_cell_length_a       3.349953250845938
_cell_length_b       3.349953250842377
_cell_length_c       26.880000121672705
_cell_angle_alpha    90.0
_cell_angle_beta     90.0
_cell_angle_gamma    120.00000000003519

_space_group_name_H-M_alt    "P 1"
_space_group_IT_number       1

loop_
  _space_group_symop_operation_xyz
  'x, y, z'

loop_
  _atom_site_type_symbol
  _atom_site_label
  _atom_site_symmetry_multiplicity
  _atom_site_fract_x
  _atom_site_fract_y
  _atom_site_fract_z
  _atom_site_occupancy
  Br  Br1       1.0  0.6666669847440474  0.3333329859851446  0.3348214270558547  1.0000
  Cl  Cl1       1.0  0.3333329854322145  0.6666669831836742  0.6651785729441453  1.0000
  N   N1        1.0  0.0  0.0  0.44287941540636466  1.0000
  O   O1        1.0  0.3333329854322145  0.6666669831836742  0.5264165508793792  1.0000
  Sc  Sc1       1.0  0.3333329854322145  0.6666669831836742  0.40741504554969626  1.0000
  Sc  Sc2       1.0  0.6666669847440474  0.3333329859851446  0.5038098270113147  1.0000
