data_image0
_chemical_formula_structural       C2HNO2Ti2
_chemical_formula_sum              "C2 H1 N1 O2 Ti2"
_cell_length_a       3.1459283596657093
_cell_length_b       3.145928359636973
_cell_length_c       26.282094004595535
_cell_angle_alpha    90.0
_cell_angle_beta     90.0
_cell_angle_gamma    120.00000000030217

_space_group_name_H-M_alt    "P 1"
_space_group_IT_number       1

loop_
  _space_group_symop_operation_xyz
  'x, y, z'

loop_
  _atom_site_type_symbol
  _atom_site_label
  _atom_site_symmetry_multiplicity
  _atom_site_fract_x
  _atom_site_fract_y
  _atom_site_fract_z
  _atom_site_occupancy
  C   C1        1.0  0.0  0.0  0.47039484207983423  1.0000
  C   C2        1.0  0.3333329854322146  0.6666669831836743  0.6117392129637891  1.0000
  H   H1        1.0  0.6666669847440476  0.3333329859851446  0.3424384677425746  1.0000
  N   N1        1.0  0.3333329854322146  0.6666669831836743  0.5643572155441337  1.0000
  O   O1        1.0  0.3333329854322146  0.6666669831836743  0.6575615322574256  1.0000
  O   O2        1.0  0.6666669847440476  0.3333329859851446  0.37994606235808376  1.0000
  Ti  Ti1       1.0  0.3333329854322146  0.6666669831836743  0.42760750825805177  1.0000
  Ti  Ti2       1.0  0.6666669847440476  0.3333329859851446  0.5131526650290766  1.0000
