data_image0
_chemical_formula_structural       BrClNOZr2
_chemical_formula_sum              "Br1 Cl1 N1 O1 Zr2"
_cell_length_a       3.4798649537013766
_cell_length_b       3.4798649536790562
_cell_length_c       25.341226893797927
_cell_angle_alpha    90.0
_cell_angle_beta     90.0
_cell_angle_gamma    120.00000000021217

_space_group_name_H-M_alt    "P 1"
_space_group_IT_number       1

loop_
  _space_group_symop_operation_xyz
  'x, y, z'

loop_
  _atom_site_type_symbol
  _atom_site_label
  _atom_site_symmetry_multiplicity
  _atom_site_fract_x
  _atom_site_fract_y
  _atom_site_fract_z
  _atom_site_occupancy
  Br  Br1       1.0  0.6666669847440474  0.3333329859851446  0.35515249666947596  1.0000
  Cl  Cl1       1.0  0.33333298543221457  0.6666669831836742  0.6448475033305242  1.0000
  N   N1        1.0  0.0  0.0  0.45771865809397744  1.0000
  O   O1        1.0  0.33333298543221457  0.6666669831836742  0.5379372535578781  1.0000
  Zr  Zr1       1.0  0.33333298543221457  0.6666669831836742  0.43615575974136567  1.0000
  Zr  Zr2       1.0  0.6666669847440474  0.3333329859851446  0.5720798070246569  1.0000
