data_image0
_chemical_formula_structural       CClO2PZr2
_chemical_formula_sum              "C1 Cl1 O2 P1 Zr2"
_cell_length_a       3.3176297892823055
_cell_length_b       3.3176297892805247
_cell_length_c       28.499042988670396
_cell_angle_alpha    90.0
_cell_angle_beta     90.0
_cell_angle_gamma    120.00000000001775

_space_group_name_H-M_alt    "P 1"
_space_group_IT_number       1

loop_
  _space_group_symop_operation_xyz
  'x, y, z'

loop_
  _atom_site_type_symbol
  _atom_site_label
  _atom_site_symmetry_multiplicity
  _atom_site_fract_x
  _atom_site_fract_y
  _atom_site_fract_z
  _atom_site_occupancy
  C   C1        1.0  0.0  0.0  0.4815625444199758  1.0000
  Cl  Cl1       1.0  0.3333329854322147  0.6666669831836743  0.6841999219560498  1.0000
  O   O1        1.0  0.3333329854322147  0.6666669831836743  0.5641840757841542  1.0000
  O   O2        1.0  0.6666669847440474  0.3333329859851446  0.31580007804394994  1.0000
  P   P1        1.0  0.6666669847440474  0.3333329859851446  0.3681515129218736  1.0000
  Zr  Zr1       1.0  0.3333329854322147  0.6666669831836743  0.43798167553337913  1.0000
  Zr  Zr2       1.0  0.6666669847440474  0.3333329859851446  0.5330375322579589  1.0000
