data_image0
_chemical_formula_structural       Br2NTi2
_chemical_formula_sum              "Br2 N1 Ti2"
_cell_length_a       3.332643307230546
_cell_length_b       3.332643307227284
_cell_length_c       23.65177296271928
_cell_angle_alpha    90.0
_cell_angle_beta     90.0
_cell_angle_gamma    120.00000000003239

_space_group_name_H-M_alt    "P 1"
_space_group_IT_number       1

loop_
  _space_group_symop_operation_xyz
  'x, y, z'

loop_
  _atom_site_type_symbol
  _atom_site_label
  _atom_site_symmetry_multiplicity
  _atom_site_fract_x
  _atom_site_fract_y
  _atom_site_fract_z
  _atom_site_occupancy
  Br  Br1       1.0  0.33333298543221457  0.6666669831836742  0.6194788435443677  1.0000
  Br  Br2       1.0  0.6666669847440474  0.3333329859851446  0.38052115645563245  1.0000
  N   N1        1.0  0.0  0.0  0.5000000355616607  1.0000
  Ti  Ti1       1.0  0.33333298543221457  0.6666669831836742  0.4580736039759454  1.0000
  Ti  Ti2       1.0  0.6666669847440474  0.3333329859851446  0.5419263954932746  1.0000
