data_image0
_chemical_formula_structural       C3N2OSTi2
_chemical_formula_sum              "C3 N2 O1 S1 Ti2"
_cell_length_a       3.2735525852484573
_cell_length_b       3.2735525852551186
_cell_length_c       28.400419450037994
_cell_angle_alpha    90.0
_cell_angle_beta     90.0
_cell_angle_gamma    119.9999999999327

_space_group_name_H-M_alt    "P 1"
_space_group_IT_number       1

loop_
  _space_group_symop_operation_xyz
  'x, y, z'

loop_
  _atom_site_type_symbol
  _atom_site_label
  _atom_site_symmetry_multiplicity
  _atom_site_fract_x
  _atom_site_fract_y
  _atom_site_fract_z
  _atom_site_occupancy
  C   C1        1.0  0.0  0.0  0.48774933861279696  1.0000
  C   C2        1.0  0.33333298543221446  0.6666669831836742  0.6411601402276441  1.0000
  C   C3        1.0  0.6666669847440474  0.3333329859851447  0.3587574621304823  1.0000
  N   N1        1.0  0.33333298543221446  0.6666669831836742  0.6831032719135435  1.0000
  N   N2        1.0  0.6666669847440474  0.3333329859851447  0.3168967280864565  1.0000
  O   O1        1.0  0.6666669847440474  0.3333329859851447  0.4057480842098343  1.0000
  S   S1        1.0  0.33333298543221446  0.6666669831836742  0.5821269915702614  1.0000
  Ti  Ti1       1.0  0.33333298543221446  0.6666669831836742  0.45076891143484926  1.0000
  Ti  Ti2       1.0  0.6666669847440474  0.3333329859851447  0.5270525476917718  1.0000
