data_image0
_chemical_formula_structural       CO2PZr2
_chemical_formula_sum              "C1 O2 P1 Zr2"
_cell_length_a       3.327723136458043
_cell_length_b       3.3277231364529785
_cell_length_c       25.11131674572943
_cell_angle_alpha    90.0
_cell_angle_beta     90.0
_cell_angle_gamma    120.00000000005035

_space_group_name_H-M_alt    "P 1"
_space_group_IT_number       1

loop_
  _space_group_symop_operation_xyz
  'x, y, z'

loop_
  _atom_site_type_symbol
  _atom_site_label
  _atom_site_symmetry_multiplicity
  _atom_site_fract_x
  _atom_site_fract_y
  _atom_site_fract_z
  _atom_site_occupancy
  C   C1        1.0  0.0  0.0  0.4531956469966211  1.0000
  O   O1        1.0  0.3333329854322145  0.6666669831836742  0.6415958553216614  1.0000
  O   O2        1.0  0.6666669847440474  0.3333329859851446  0.3584041446783386  1.0000
  P   P1        1.0  0.3333329854322145  0.6666669831836742  0.5821565544820255  1.0000
  Zr  Zr1       1.0  0.3333329854322145  0.6666669831836742  0.3959754761260009  1.0000
  Zr  Zr2       1.0  0.6666669847440474  0.3333329859851446  0.5030758279732918  1.0000
