data_image0
_chemical_formula_structural       CH2Hf2O2
_chemical_formula_sum              "C1 H2 Hf2 O2"
_cell_length_a       3.2804960583185605
_cell_length_b       3.2804960583102853
_cell_length_c       25.08306614826265
_cell_angle_alpha    90.0
_cell_angle_beta     90.0
_cell_angle_gamma    120.00000000008345

_space_group_name_H-M_alt    "P 1"
_space_group_IT_number       1

loop_
  _space_group_symop_operation_xyz
  'x, y, z'

loop_
  _atom_site_type_symbol
  _atom_site_label
  _atom_site_symmetry_multiplicity
  _atom_site_fract_x
  _atom_site_fract_y
  _atom_site_fract_z
  _atom_site_occupancy
  C   C1        1.0  0.0  0.0  0.5000000346069873  1.0000
  H   H1        1.0  0.3333329854322145  0.6666669831836742  0.641192191305393  1.0000
  H   H2        1.0  0.6666669847440474  0.33333298598514444  0.358807808694607  1.0000
  Hf  Hf1       1.0  0.3333329854322145  0.6666669831836742  0.4514802483253642  1.0000
  Hf  Hf2       1.0  0.6666669847440474  0.33333298598514444  0.5485197511581136  1.0000
  O   O1        1.0  0.3333329854322145  0.6666669831836742  0.6016345787577551  1.0000
  O   O2        1.0  0.6666669847440474  0.33333298598514444  0.3983654212422538  1.0000
