data_image0
_chemical_formula_structural       C2HNOZr2
_chemical_formula_sum              "C2 H1 N1 O1 Zr2"
_cell_length_a       3.3536111032214238
_cell_length_b       3.35361110322173
_cell_length_c       25.39252535945745
_cell_angle_alpha    90.0
_cell_angle_beta     90.0
_cell_angle_gamma    119.99999999999699

_space_group_name_H-M_alt    "P 1"
_space_group_IT_number       1

loop_
  _space_group_symop_operation_xyz
  'x, y, z'

loop_
  _atom_site_type_symbol
  _atom_site_label
  _atom_site_symmetry_multiplicity
  _atom_site_fract_x
  _atom_site_fract_y
  _atom_site_fract_z
  _atom_site_occupancy
  C   C1        1.0  0.0  0.0  0.5561231304437164  1.0000
  C   C2        1.0  0.6666669847440474  0.3333329859851446  0.40121681040615287  1.0000
  H   H1        1.0  0.3333329854322145  0.6666669831836742  0.6455649892007315  1.0000
  N   N1        1.0  0.6666669847440474  0.3333329859851446  0.3544350107992684  1.0000
  O   O1        1.0  0.6666669847440474  0.3333329859851446  0.4537976039226513  1.0000
  Zr  Zr1       1.0  0.3333329854322145  0.6666669831836742  0.5087014212057887  1.0000
  Zr  Zr2       1.0  0.6666669847440474  0.3333329859851446  0.6063871518655444  1.0000
