data_image0
_chemical_formula_structural       CHf2N3OS
_chemical_formula_sum              "C1 Hf2 N3 O1 S1"
_cell_length_a       3.377451103545403
_cell_length_b       3.3774511035230557
_cell_length_c       27.40525808344646
_cell_angle_alpha    90.0
_cell_angle_beta     90.0
_cell_angle_gamma    120.00000000021889

_space_group_name_H-M_alt    "P 1"
_space_group_IT_number       1

loop_
  _space_group_symop_operation_xyz
  'x, y, z'

loop_
  _atom_site_type_symbol
  _atom_site_label
  _atom_site_symmetry_multiplicity
  _atom_site_fract_x
  _atom_site_fract_y
  _atom_site_fract_z
  _atom_site_occupancy
  C   C1        1.0  0.6666669847440474  0.3333329859851446  0.37184031492334296  1.0000
  Hf  Hf1       1.0  0.33333298543221457  0.6666669831836743  0.49418654908785437  1.0000
  Hf  Hf2       1.0  0.6666669847440474  0.3333329859851446  0.5858573716826952  1.0000
  N   N1        1.0  0.0  0.0  0.5380182337459057  1.0000
  N   N2        1.0  0.33333298543221457  0.6666669831836743  0.6223772660820538  1.0000
  N   N3        1.0  0.6666669847440474  0.3333329859851446  0.3284041322506739  1.0000
  O   O1        1.0  0.33333298543221457  0.6666669831836743  0.6715958677493262  1.0000
  S   S1        1.0  0.6666669847440474  0.3333329859851446  0.43396311010148086  1.0000
