data_image0
_chemical_formula_structural       C2NOPSZr2
_chemical_formula_sum              "C2 N1 O1 P1 S1 Zr2"
_cell_length_a       3.4223742770874312
_cell_length_b       3.4223742770685424
_cell_length_c       28.578891754663566
_cell_angle_alpha    90.0
_cell_angle_beta     90.0
_cell_angle_gamma    120.00000000018258

_space_group_name_H-M_alt    "P 1"
_space_group_IT_number       1

loop_
  _space_group_symop_operation_xyz
  'x, y, z'

loop_
  _atom_site_type_symbol
  _atom_site_label
  _atom_site_symmetry_multiplicity
  _atom_site_fract_x
  _atom_site_fract_y
  _atom_site_fract_z
  _atom_site_occupancy
  C   C1        1.0  0.0  0.0  0.4795597749080659  1.0000
  C   C2        1.0  0.3333329854322145  0.6666669831836742  0.6434115241146505  1.0000
  N   N1        1.0  0.3333329854322145  0.6666669831836742  0.6850822601078868  1.0000
  O   O1        1.0  0.6666669847440474  0.3333329859851446  0.31491773989211325  1.0000
  P   P1        1.0  0.6666669847440474  0.3333329859851446  0.36716431181196146  1.0000
  S   S1        1.0  0.3333329854322145  0.6666669831836742  0.5845461240866237  1.0000
  Zr  Zr1       1.0  0.3333329854322145  0.6666669831836742  0.43673787552782095  1.0000
  Zr  Zr2       1.0  0.6666669847440474  0.3333329859851446  0.5254243257262345  1.0000
