data_image0
_chemical_formula_structural       CHHf2O
_chemical_formula_sum              "C1 H1 Hf2 O1"
_cell_length_a       3.2536728681084313
_cell_length_b       3.2536728681055087
_cell_length_c       22.640191171101726
_cell_angle_alpha    90.0
_cell_angle_beta     90.0
_cell_angle_gamma    120.00000000002971

_space_group_name_H-M_alt    "P 1"
_space_group_IT_number       1

loop_
  _space_group_symop_operation_xyz
  'x, y, z'

loop_
  _atom_site_type_symbol
  _atom_site_label
  _atom_site_symmetry_multiplicity
  _atom_site_fract_x
  _atom_site_fract_y
  _atom_site_fract_z
  _atom_site_occupancy
  C   C1        1.0  0.0  0.0  0.4982336337597407  1.0000
  H   H1        1.0  0.6666669847440475  0.3333329859851446  0.397523145099929  1.0000
  Hf  Hf1       1.0  0.33333298543221457  0.6666669831836742  0.4432052740150035  1.0000
  Hf  Hf2       1.0  0.6666669847440475  0.3333329859851446  0.5599347063907043  1.0000
  O   O1        1.0  0.33333298543221457  0.6666669831836742  0.6024768549000712  1.0000
