data_image0
_chemical_formula_structural       CN2O2PSc2
_chemical_formula_sum              "C1 N2 O2 P1 Sc2"
_cell_length_a       3.271341878256552
_cell_length_b       3.2713418782538257
_cell_length_c       27.66311009324693
_cell_angle_alpha    90.0
_cell_angle_beta     90.0
_cell_angle_gamma    120.00000000002757

_space_group_name_H-M_alt    "P 1"
_space_group_IT_number       1

loop_
  _space_group_symop_operation_xyz
  'x, y, z'

loop_
  _atom_site_type_symbol
  _atom_site_label
  _atom_site_symmetry_multiplicity
  _atom_site_fract_x
  _atom_site_fract_y
  _atom_site_fract_z
  _atom_site_occupancy
  C   C1        1.0  0.6666669847440474  0.3333329859851446  0.36827805475167313  1.0000
  N   N1        1.0  0.0  0.0  0.5046489964474523  1.0000
  N   N2        1.0  0.6666669847440474  0.3333329859851446  0.3253430279409206  1.0000
  O   O1        1.0  0.3333329854322146  0.6666669831836742  0.6746569720590794  1.0000
  O   O2        1.0  0.6666669847440474  0.3333329859851446  0.4166467448368573  1.0000
  P   P1        1.0  0.3333329854322146  0.6666669831836742  0.6206774833966195  1.0000
  Sc  Sc1       1.0  0.3333329854322146  0.6666669831836742  0.4621972701770566  1.0000
  Sc  Sc2       1.0  0.6666669847440474  0.3333329859851446  0.5491579088655082  1.0000
