data_image0
_chemical_formula_structural       CClN2SY2
_chemical_formula_sum              "C1 Cl1 N2 S1 Y2"
_cell_length_a       3.601808970714808
_cell_length_b       3.601808970716031
_cell_length_c       26.601808905163608
_cell_angle_alpha    90.0
_cell_angle_beta     90.0
_cell_angle_gamma    119.99999999998877

_space_group_name_H-M_alt    "P 1"
_space_group_IT_number       1

loop_
  _space_group_symop_operation_xyz
  'x, y, z'

loop_
  _atom_site_type_symbol
  _atom_site_label
  _atom_site_symmetry_multiplicity
  _atom_site_fract_x
  _atom_site_fract_y
  _atom_site_fract_z
  _atom_site_occupancy
  C   C1        1.0  0.3333329854322146  0.6666669831836745  0.6030953332954067  1.0000
  Cl  Cl1       1.0  0.6666669847440474  0.3333329859851446  0.33832285736978707  1.0000
  N   N1        1.0  0.0  0.0  0.4544657992551168  1.0000
  N   N2        1.0  0.3333329854322146  0.6666669831836745  0.5561383537887034  1.0000
  S   S1        1.0  0.3333329854322146  0.6666669831836745  0.6616771426302127  1.0000
  Y   Y1        1.0  0.3333329854322146  0.6666669831836745  0.4055949145065356  1.0000
  Y   Y2        1.0  0.6666669847440474  0.3333329859851446  0.5045844711586833  1.0000
