data_image0
_chemical_formula_structural       Br2Hf2N
_chemical_formula_sum              "Br2 Hf2 N1"
_cell_length_a       3.4688071409855907
_cell_length_b       3.4688071409794103
_cell_length_c       24.030672669765064
_cell_angle_alpha    90.0
_cell_angle_beta     90.0
_cell_angle_gamma    120.00000000005895

_space_group_name_H-M_alt    "P 1"
_space_group_IT_number       1

loop_
  _space_group_symop_operation_xyz
  'x, y, z'

loop_
  _atom_site_type_symbol
  _atom_site_label
  _atom_site_symmetry_multiplicity
  _atom_site_fract_x
  _atom_site_fract_y
  _atom_site_fract_z
  _atom_site_occupancy
  Br  Br1       1.0  0.3333329854322145  0.6666669831836742  0.6254786487386337  1.0000
  Br  Br2       1.0  0.6666669847440474  0.3333329859851446  0.3745213512613663  1.0000
  Hf  Hf1       1.0  0.3333329854322145  0.6666669831836742  0.4547852687955523  1.0000
  Hf  Hf2       1.0  0.6666669847440474  0.3333329859851446  0.5452147307222442  1.0000
  N   N1        1.0  0.0  0.0  0.5000000323070395  1.0000
