data_image0
_chemical_formula_structural       CHNO2Sc2
_chemical_formula_sum              "C1 H1 N1 O2 Sc2"
_cell_length_a       3.3412632037179115
_cell_length_b       3.341263203709163
_cell_length_c       25.29815531700678
_cell_angle_alpha    90.0
_cell_angle_beta     90.0
_cell_angle_gamma    120.0000000000866

_space_group_name_H-M_alt    "P 1"
_space_group_IT_number       1

loop_
  _space_group_symop_operation_xyz
  'x, y, z'

loop_
  _atom_site_type_symbol
  _atom_site_label
  _atom_site_symmetry_multiplicity
  _atom_site_fract_x
  _atom_site_fract_y
  _atom_site_fract_z
  _atom_site_occupancy
  C   C1        1.0  0.0  0.0  0.4928328277620772  1.0000
  H   H1        1.0  0.6666669847440473  0.3333329859851446  0.3557571643948962  1.0000
  N   N1        1.0  0.3333329854322145  0.6666669831836742  0.5933408159318668  1.0000
  O   O1        1.0  0.3333329854322145  0.6666669831836742  0.6442428356051038  1.0000
  O   O2        1.0  0.6666669847440473  0.3333329859851446  0.3946499727012642  1.0000
  Sc  Sc1       1.0  0.3333329854322145  0.6666669831836742  0.442898972112898  1.0000
  Sc  Sc2       1.0  0.6666669847440473  0.3333329859851446  0.543301029297515  1.0000
