data_image0
_chemical_formula_structural       CClN2O2Y2
_chemical_formula_sum              "C1 Cl1 N2 O2 Y2"
_cell_length_a       3.7220817895983513
_cell_length_b       3.722081789581488
_cell_length_c       27.02738760810579
_cell_angle_alpha    90.0
_cell_angle_beta     90.0
_cell_angle_gamma    120.00000000014988

_space_group_name_H-M_alt    "P 1"
_space_group_IT_number       1

loop_
  _space_group_symop_operation_xyz
  'x, y, z'

loop_
  _atom_site_type_symbol
  _atom_site_label
  _atom_site_symmetry_multiplicity
  _atom_site_fract_x
  _atom_site_fract_y
  _atom_site_fract_z
  _atom_site_occupancy
  C   C1        1.0  0.6666669847440474  0.3333329859851445  0.37766599175476867  1.0000
  Cl  Cl1       1.0  0.3333329854322146  0.6666669831836742  0.6670044426601998  1.0000
  N   N1        1.0  0.0  0.0  0.5043330239475752  1.0000
  N   N2        1.0  0.6666669847440474  0.3333329859851445  0.4237352454340092  1.0000
  O   O1        1.0  0.3333329854322146  0.6666669831836742  0.5676261007210944  1.0000
  O   O2        1.0  0.6666669847440474  0.3333329859851445  0.33299555733980046  1.0000
  Y   Y1        1.0  0.3333329854322146  0.6666669831836742  0.47752397381108597  1.0000
  Y   Y2        1.0  0.6666669847440474  0.3333329859851445  0.5937985621298213  1.0000
