data_image0
_chemical_formula_structural       C3N2O2Sc2
_chemical_formula_sum              "C3 N2 O2 Sc2"
_cell_length_a       3.3664805078154676
_cell_length_b       3.366480507817017
_cell_length_c       28.034126669620605
_cell_angle_alpha    90.0
_cell_angle_beta     90.0
_cell_angle_gamma    119.99999999998478

_space_group_name_H-M_alt    "P 1"
_space_group_IT_number       1

loop_
  _space_group_symop_operation_xyz
  'x, y, z'

loop_
  _atom_site_type_symbol
  _atom_site_label
  _atom_site_symmetry_multiplicity
  _atom_site_fract_x
  _atom_site_fract_y
  _atom_site_fract_z
  _atom_site_occupancy
  C   C1        1.0  0.0  0.0  0.4993825511824963  1.0000
  C   C2        1.0  0.33333298543221446  0.6666669831836742  0.6360205205249595  1.0000
  C   C3        1.0  0.6666669847440473  0.3333329859851446  0.3634239601078554  1.0000
  N   N1        1.0  0.33333298543221446  0.6666669831836742  0.591549584426717  1.0000
  N   N2        1.0  0.6666669847440473  0.3333329859851446  0.32103728809048  1.0000
  O   O1        1.0  0.33333298543221446  0.6666669831836742  0.67896271190952  1.0000
  O   O2        1.0  0.6666669847440473  0.3333329859851446  0.41111084318776436  1.0000
  Sc  Sc1       1.0  0.33333298543221446  0.6666669831836742  0.4547979562943173  1.0000
  Sc  Sc2       1.0  0.6666669847440473  0.3333329859851446  0.544122804799363  1.0000
