data_image0
_chemical_formula_structural       C2N3SY2
_chemical_formula_sum              "C2 N3 S1 Y2"
_cell_length_a       3.5900468731844337
_cell_length_b       3.590046873180464
_cell_length_c       27.538677409979147
_cell_angle_alpha    90.0
_cell_angle_beta     90.0
_cell_angle_gamma    120.00000000003658

_space_group_name_H-M_alt    "P 1"
_space_group_IT_number       1

loop_
  _space_group_symop_operation_xyz
  'x, y, z'

loop_
  _atom_site_type_symbol
  _atom_site_label
  _atom_site_symmetry_multiplicity
  _atom_site_fract_x
  _atom_site_fract_y
  _atom_site_fract_z
  _atom_site_occupancy
  C   C1        1.0  0.3333329854322145  0.6666669831836742  0.6295959925122685  1.0000
  C   C2        1.0  0.6666669847440472  0.3333329859851446  0.3833641940951401  1.0000
  N   N1        1.0  0.0  0.0  0.5264042676181323  1.0000
  N   N2        1.0  0.3333329854322145  0.6666669831836742  0.6731869194001785  1.0000
  N   N3        1.0  0.6666669847440472  0.3333329859851446  0.4287368880922478  1.0000
  S   S1        1.0  0.6666669847440472  0.3333329859851446  0.3268130805998216  1.0000
  Y   Y1        1.0  0.3333329854322145  0.6666669831836742  0.4786854828118725  1.0000
  Y   Y2        1.0  0.6666669847440472  0.3333329859851446  0.5751564266109993  1.0000
