data_image0
_chemical_formula_structural       CFN2OY2
_chemical_formula_sum              "C1 F1 N2 O1 Y2"
_cell_length_a       3.5234799833174524
_cell_length_b       3.5234799833133916
_cell_length_c       25.778082125170574
_cell_angle_alpha    90.0
_cell_angle_beta     90.0
_cell_angle_gamma    120.00000000003813

_space_group_name_H-M_alt    "P 1"
_space_group_IT_number       1

loop_
  _space_group_symop_operation_xyz
  'x, y, z'

loop_
  _atom_site_type_symbol
  _atom_site_label
  _atom_site_symmetry_multiplicity
  _atom_site_fract_x
  _atom_site_fract_y
  _atom_site_fract_z
  _atom_site_occupancy
  C   C1        1.0  0.3333329854322145  0.6666669831836741  0.6040884165459933  1.0000
  F   F1        1.0  0.6666669847440474  0.3333329859851445  0.349133808958274  1.0000
  N   N1        1.0  0.0  0.0  0.4467725345745336  1.0000
  N   N2        1.0  0.3333329854322145  0.6666669831836741  0.555767560530722  1.0000
  O   O1        1.0  0.3333329854322145  0.6666669831836741  0.650866191041726  1.0000
  Y   Y1        1.0  0.3333329854322145  0.6666669831836741  0.3968136829366103  1.0000
  Y   Y2        1.0  0.6666669847440474  0.3333329859851445  0.4999270790346876  1.0000
