data_image0
_chemical_formula_structural       HN2OY2
_chemical_formula_sum              "H1 N2 O1 Y2"
_cell_length_a       3.573702683045219
_cell_length_b       3.573702683046392
_cell_length_c       24.24057630350837
_cell_angle_alpha    90.0
_cell_angle_beta     90.0
_cell_angle_gamma    119.99999999998916

_space_group_name_H-M_alt    "P 1"
_space_group_IT_number       1

loop_
  _space_group_symop_operation_xyz
  'x, y, z'

loop_
  _atom_site_type_symbol
  _atom_site_label
  _atom_site_symmetry_multiplicity
  _atom_site_fract_x
  _atom_site_fract_y
  _atom_site_fract_z
  _atom_site_occupancy
  H   H1        1.0  0.6666669847440474  0.3333329859851446  0.3712783016094142  1.0000
  N   N1        1.0  0.0  0.0  0.46406472578808916  1.0000
  N   N2        1.0  0.3333329854322145  0.6666669831836742  0.5738786233620525  1.0000
  O   O1        1.0  0.3333329854322145  0.6666669831836742  0.6287216983905858  1.0000
  Y   Y1        1.0  0.3333329854322145  0.6666669831836742  0.4159905405968719  1.0000
  Y   Y2        1.0  0.6666669847440474  0.3333329859851446  0.5316458933107318  1.0000
