data_image0
_chemical_formula_structural       CN2O2Y2
_chemical_formula_sum              "C1 N2 O2 Y2"
_cell_length_a       3.581638416755524
_cell_length_b       3.5816384167521593
_cell_length_c       25.378626583331442
_cell_angle_alpha    90.0
_cell_angle_beta     90.0
_cell_angle_gamma    120.00000000003108

_space_group_name_H-M_alt    "P 1"
_space_group_IT_number       1

loop_
  _space_group_symop_operation_xyz
  'x, y, z'

loop_
  _atom_site_type_symbol
  _atom_site_label
  _atom_site_symmetry_multiplicity
  _atom_site_fract_x
  _atom_site_fract_y
  _atom_site_fract_z
  _atom_site_occupancy
  C   C1        1.0  0.6666669847440476  0.3333329859851446  0.4014657265978692  1.0000
  N   N1        1.0  0.0  0.0  0.5494359885440713  1.0000
  N   N2        1.0  0.6666669847440476  0.3333329859851446  0.3546291195249767  1.0000
  O   O1        1.0  0.3333329854322147  0.6666669831836743  0.6453708804750231  1.0000
  O   O2        1.0  0.6666669847440476  0.3333329859851446  0.4540198530092205  1.0000
  Y   Y1        1.0  0.3333329854322147  0.6666669831836743  0.5065295903967056  1.0000
  Y   Y2        1.0  0.6666669847440476  0.3333329859851446  0.618349662404982  1.0000
