data_image0
_chemical_formula_structural       CBr2Sc2
_chemical_formula_sum              "C1 Br2 Sc2"
_cell_length_a       3.525576813750317
_cell_length_b       3.525576813749863
_cell_length_c       28.0432449661135
_cell_angle_alpha    90.0
_cell_angle_beta     90.0
_cell_angle_gamma    120.00000000000426

_space_group_name_H-M_alt    "P 1"
_space_group_IT_number       1

loop_
  _space_group_symop_operation_xyz
  'x, y, z'

loop_
  _atom_site_type_symbol
  _atom_site_label
  _atom_site_symmetry_multiplicity
  _atom_site_fract_x
  _atom_site_fract_y
  _atom_site_fract_z
  _atom_site_occupancy
  C   C1        1.0  0.0  0.0  0.5000000269999987  1.0000
  Br  Br1       1.0  0.33333298543221457  0.6666669831836743  0.391040294191221  1.0000
  Br  Br2       1.0  0.6666669847440475  0.3333329859851446  0.608959705808779  1.0000
  Sc  Sc1       1.0  0.33333298543221457  0.6666669831836743  0.543297403377629  1.0000
  Sc  Sc2       1.0  0.6666669847440475  0.3333329859851446  0.4567025966223781  1.0000
