data_image0
_chemical_formula_structural       C2HNO2Y2
_chemical_formula_sum              "C2 H1 N1 O2 Y2"
_cell_length_a       3.622665442279589
_cell_length_b       3.622665442286464
_cell_length_c       26.892474096042754
_cell_angle_alpha    90.0
_cell_angle_beta     90.0
_cell_angle_gamma    119.99999999993722

_space_group_name_H-M_alt    "P 1"
_space_group_IT_number       1

loop_
  _space_group_symop_operation_xyz
  'x, y, z'

loop_
  _atom_site_type_symbol
  _atom_site_label
  _atom_site_symmetry_multiplicity
  _atom_site_fract_x
  _atom_site_fract_y
  _atom_site_fract_z
  _atom_site_occupancy
  C   C1        1.0  0.0  0.0  0.4705235981106592  1.0000
  C   C2        1.0  0.3333329854322145  0.6666669831836742  0.6204295196323233  1.0000
  H   H1        1.0  0.6666669847440474  0.3333329859851446  0.33466612137870777  1.0000
  N   N1        1.0  0.3333329854322145  0.6666669831836742  0.5741533403381522  1.0000
  O   O1        1.0  0.3333329854322145  0.6666669831836742  0.665333878621292  1.0000
  O   O2        1.0  0.6666669847440474  0.3333329859851446  0.3713130477992231  1.0000
  Y   Y1        1.0  0.3333329854322145  0.6666669831836742  0.4190262760088718  1.0000
  Y   Y2        1.0  0.6666669847440474  0.3333329859851446  0.5210453513829509  1.0000
