data_image0
_chemical_formula_structural       BrHNSc2
_chemical_formula_sum              "Br1 H1 N1 Sc2"
_cell_length_a       3.34341206879076
_cell_length_b       3.343412068784897
_cell_length_c       23.23661263846709
_cell_angle_alpha    90.0
_cell_angle_beta     90.0
_cell_angle_gamma    120.00000000005801

_space_group_name_H-M_alt    "P 1"
_space_group_IT_number       1

loop_
  _space_group_symop_operation_xyz
  'x, y, z'

loop_
  _atom_site_type_symbol
  _atom_site_label
  _atom_site_symmetry_multiplicity
  _atom_site_fract_x
  _atom_site_fract_y
  _atom_site_fract_z
  _atom_site_occupancy
  Br  Br1       1.0  0.3333329854322144  0.6666669831836742  0.612680206877446  1.0000
  H   H1        1.0  0.6666669847440474  0.3333329859851446  0.3873197931225542  1.0000
  N   N1        1.0  0.0  0.0  0.4809506463051585  1.0000
  Sc  Sc1       1.0  0.3333329854322144  0.6666669831836742  0.4287035758393429  1.0000
  Sc  Sc2       1.0  0.6666669847440474  0.3333329859851446  0.5315229161814939  1.0000
