data_image0
_chemical_formula_structural       BrCN2SZr2
_chemical_formula_sum              "Br1 C1 N2 S1 Zr2"
_cell_length_a       3.467208985581958
_cell_length_b       3.4672089855727966
_cell_length_c       26.4156836653962
_cell_angle_alpha    90.0
_cell_angle_beta     90.0
_cell_angle_gamma    120.00000000008743

_space_group_name_H-M_alt    "P 1"
_space_group_IT_number       1

loop_
  _space_group_symop_operation_xyz
  'x, y, z'

loop_
  _atom_site_type_symbol
  _atom_site_label
  _atom_site_symmetry_multiplicity
  _atom_site_fract_x
  _atom_site_fract_y
  _atom_site_fract_z
  _atom_site_occupancy
  Br  Br1       1.0  0.6666669847440474  0.3333329859851446  0.3407066844834209  1.0000
  C   C1        1.0  0.33333298543221446  0.6666669831836742  0.6004257794727553  1.0000
  N   N1        1.0  0.0  0.0  0.4582053611833389  1.0000
  N   N2        1.0  0.33333298543221446  0.6666669831836742  0.5529685507727669  1.0000
  S   S1        1.0  0.33333298543221446  0.6666669831836742  0.6592933155165791  1.0000
  Zr  Zr1       1.0  0.33333298543221446  0.6666669831836742  0.4150964667865754  1.0000
  Zr  Zr2       1.0  0.6666669847440474  0.3333329859851446  0.501205521479539  1.0000
