data_image0
_chemical_formula_structural       C2HHf2NOS
_chemical_formula_sum              "C2 H1 Hf2 N1 O1 S1"
_cell_length_a       3.328877408379871
_cell_length_b       3.328877408338585
_cell_length_c       26.90513164747861
_cell_angle_alpha    90.0
_cell_angle_beta     90.0
_cell_angle_gamma    120.00000000041028

_space_group_name_H-M_alt    "P 1"
_space_group_IT_number       1

loop_
  _space_group_symop_operation_xyz
  'x, y, z'

loop_
  _atom_site_type_symbol
  _atom_site_label
  _atom_site_symmetry_multiplicity
  _atom_site_fract_x
  _atom_site_fract_y
  _atom_site_fract_z
  _atom_site_occupancy
  C   C1        1.0  0.0  0.0  0.4642691042729102  1.0000
  C   C2        1.0  0.33333298543221446  0.6666669831836742  0.6078544694033868  1.0000
  H   H1        1.0  0.6666669847440474  0.33333298598514477  0.334508677300727  1.0000
  Hf  Hf1       1.0  0.33333298543221446  0.6666669831836742  0.420252594230344  1.0000
  Hf  Hf2       1.0  0.6666669847440474  0.33333298598514477  0.5104877332312447  1.0000
  N   N1        1.0  0.33333298543221446  0.6666669831836742  0.5610111131662137  1.0000
  O   O1        1.0  0.6666669847440474  0.33333298598514477  0.3713019862583707  1.0000
  S   S1        1.0  0.33333298543221446  0.6666669831836742  0.6654913226992729  1.0000
