data_image0
_chemical_formula_structural       CHHf2N2O
_chemical_formula_sum              "C1 H1 Hf2 N2 O1"
_cell_length_a       3.296679465728139
_cell_length_b       3.2966794657252914
_cell_length_c       25.300220781726306
_cell_angle_alpha    90.0
_cell_angle_beta     90.0
_cell_angle_gamma    120.00000000002856

_space_group_name_H-M_alt    "P 1"
_space_group_IT_number       1

loop_
  _space_group_symop_operation_xyz
  'x, y, z'

loop_
  _atom_site_type_symbol
  _atom_site_label
  _atom_site_symmetry_multiplicity
  _atom_site_fract_x
  _atom_site_fract_y
  _atom_site_fract_z
  _atom_site_occupancy
  C   C1        1.0  0.3333329854322145  0.6666669831836742  0.5965130039466775  1.0000
  H   H1        1.0  0.6666669847440474  0.3333329859851446  0.3557281210170492  1.0000
  Hf  Hf1       1.0  0.3333329854322145  0.6666669831836742  0.44628372125162546  1.0000
  Hf  Hf2       1.0  0.6666669847440474  0.3333329859851446  0.5384581919359737  1.0000
  N   N1        1.0  0.0  0.0  0.49095105324019245  1.0000
  N   N2        1.0  0.3333329854322145  0.6666669831836742  0.6442718789829508  1.0000
  O   O1        1.0  0.6666669847440474  0.3333329859851446  0.39503061591549543  1.0000
