data_image0
_chemical_formula_structural       BrCClOZr2
_chemical_formula_sum              "Br1 C1 Cl1 O1 Zr2"
_cell_length_a       3.623366275070272
_cell_length_b       3.62336627505658
_cell_length_c       24.643374090372756
_cell_angle_alpha    90.0
_cell_angle_beta     90.0
_cell_angle_gamma    120.000000000125

_space_group_name_H-M_alt    "P 1"
_space_group_IT_number       1

loop_
  _space_group_symop_operation_xyz
  'x, y, z'

loop_
  _atom_site_type_symbol
  _atom_site_label
  _atom_site_symmetry_multiplicity
  _atom_site_fract_x
  _atom_site_fract_y
  _atom_site_fract_z
  _atom_site_occupancy
  Br  Br1       1.0  0.6666669847440473  0.3333329859851445  0.3652097300878925  1.0000
  C   C1        1.0  0.0  0.0  0.4810394313801588  1.0000
  Cl  Cl1       1.0  0.33333298543221446  0.6666669831836742  0.6347902699121076  1.0000
  O   O1        1.0  0.33333298543221446  0.6666669831836742  0.5325896265482821  1.0000
  Zr  Zr1       1.0  0.33333298543221446  0.6666669831836742  0.44481443905337464  1.0000
  Zr  Zr2       1.0  0.6666669847440473  0.3333329859851445  0.5491905900478904  1.0000
