data_image0
_chemical_formula_structural       CClOZr2
_chemical_formula_sum              "C1 Cl1 O1 Zr2"
_cell_length_a       3.361768945760736
_cell_length_b       3.361768945757521
_cell_length_c       23.41656097798834
_cell_angle_alpha    90.0
_cell_angle_beta     90.0
_cell_angle_gamma    120.00000000003165

_space_group_name_H-M_alt    "P 1"
_space_group_IT_number       1

loop_
  _space_group_symop_operation_xyz
  'x, y, z'

loop_
  _atom_site_type_symbol
  _atom_site_label
  _atom_site_symmetry_multiplicity
  _atom_site_fract_x
  _atom_site_fract_y
  _atom_site_fract_z
  _atom_site_occupancy
  C   C1        1.0  0.0  0.0  0.5146110958574932  1.0000
  Cl  Cl1       1.0  0.6666669847440475  0.33333298598514477  0.3843433717043266  1.0000
  O   O1        1.0  0.3333329854322145  0.6666669831836742  0.6156566282956735  1.0000
  Zr  Zr1       1.0  0.3333329854322145  0.6666669831836742  0.461732339957576  1.0000
  Zr  Zr2       1.0  0.6666669847440475  0.33333298598514477  0.5753795187795077  1.0000
