data_image0
_chemical_formula_structural       C3N2SSc2
_chemical_formula_sum              "C3 N2 S1 Sc2"
_cell_length_a       3.5032415923190148
_cell_length_b       3.5032415923068028
_cell_length_c       27.510743756269868
_cell_angle_alpha    90.0
_cell_angle_beta     90.0
_cell_angle_gamma    120.0000000001153

_space_group_name_H-M_alt    "P 1"
_space_group_IT_number       1

loop_
  _space_group_symop_operation_xyz
  'x, y, z'

loop_
  _atom_site_type_symbol
  _atom_site_label
  _atom_site_symmetry_multiplicity
  _atom_site_fract_x
  _atom_site_fract_y
  _atom_site_fract_z
  _atom_site_occupancy
  C   C1        1.0  0.0  0.0  0.5346669673859945  1.0000
  C   C2        1.0  0.3333329854322145  0.6666669831836742  0.6292360569826561  1.0000
  C   C3        1.0  0.6666669847440474  0.3333329859851446  0.37041979583789475  1.0000
  N   N1        1.0  0.3333329854322145  0.6666669831836742  0.6728550823730876  1.0000
  N   N2        1.0  0.6666669847440474  0.3333329859851446  0.3271449176269124  1.0000
  S   S1        1.0  0.6666669847440474  0.3333329859851446  0.4312241477740582  1.0000
  Sc  Sc1       1.0  0.3333329854322145  0.6666669831836742  0.4905320073051215  1.0000
  Sc  Sc2       1.0  0.6666669847440474  0.3333329859851446  0.5792829178806946  1.0000
