data_image0
_chemical_formula_structural       CBr2Y2
_chemical_formula_sum              "C1 Br2 Y2"
_cell_length_a       3.7664645591268875
_cell_length_b       3.7664645591631047
_cell_length_c       24.57088831327116
_cell_angle_alpha    90.0
_cell_angle_beta     90.0
_cell_angle_gamma    119.9999999996819

_space_group_name_H-M_alt    "P 1"
_space_group_IT_number       1

loop_
  _space_group_symop_operation_xyz
  'x, y, z'

loop_
  _atom_site_type_symbol
  _atom_site_label
  _atom_site_symmetry_multiplicity
  _atom_site_fract_x
  _atom_site_fract_y
  _atom_site_fract_z
  _atom_site_occupancy
  C   C1        1.0  7.465481659888183e-33  1.709667556836016e-32  0.5000000269999987  1.0000
  Br  Br1       1.0  0.3333329854322145  0.6666669831836742  0.36711439842326954  1.0000
  Br  Br2       1.0  0.6666669847440474  0.3333329859851446  0.6328856015767306  1.0000
  Y   Y1        1.0  0.3333329854322145  0.6666669831836742  0.5542561999658251  1.0000
  Y   Y2        1.0  0.6666669847440474  0.3333329859851446  0.44574380003416775  1.0000
