data_image0
_chemical_formula_structural       CF2Hf2
_chemical_formula_sum              "C1 F2 Hf2"
_cell_length_a       3.349521654884679
_cell_length_b       3.3495216548829885
_cell_length_c       22.970136075491794
_cell_angle_alpha    90.0
_cell_angle_beta     90.0
_cell_angle_gamma    120.00000000001671

_space_group_name_H-M_alt    "P 1"
_space_group_IT_number       1

loop_
  _space_group_symop_operation_xyz
  'x, y, z'

loop_
  _atom_site_type_symbol
  _atom_site_label
  _atom_site_symmetry_multiplicity
  _atom_site_fract_x
  _atom_site_fract_y
  _atom_site_fract_z
  _atom_site_occupancy
  C   C1        1.0  0.0  0.0  0.5000000362488516  1.0000
  F   F1        1.0  0.3333329854322145  0.6666669831836742  0.6081869097152353  1.0000
  F   F2        1.0  0.6666669847440474  0.3333329859851446  0.3918130902847649  1.0000
  Hf  Hf1       1.0  0.3333329854322145  0.6666669831836742  0.4487922170277728  1.0000
  Hf  Hf2       1.0  0.6666669847440474  0.3333329859851446  0.5512077824311898  1.0000
