data_image0
_chemical_formula_structural       CCl2OSc2
_chemical_formula_sum              "C1 Cl2 O1 Sc2"
_cell_length_a       3.430821374999869
_cell_length_b       3.43082137497281
_cell_length_c       24.99835095305387
_cell_angle_alpha    90.0
_cell_angle_beta     90.0
_cell_angle_gamma    120.0000000002609

_space_group_name_H-M_alt    "P 1"
_space_group_IT_number       1

loop_
  _space_group_symop_operation_xyz
  'x, y, z'

loop_
  _atom_site_type_symbol
  _atom_site_label
  _atom_site_symmetry_multiplicity
  _atom_site_fract_x
  _atom_site_fract_y
  _atom_site_fract_z
  _atom_site_occupancy
  C   C1        1.0  0.0  0.0  0.4759182881552917  1.0000
  Cl  Cl1       1.0  0.33333298543221457  0.6666669831836742  0.6399762521575234  1.0000
  Cl  Cl2       1.0  0.6666669847440475  0.3333329859851446  0.3600237478424766  1.0000
  O   O1        1.0  0.33333298543221457  0.6666669831836742  0.5699467423669793  1.0000
  Sc  Sc1       1.0  0.33333298543221457  0.6666669831836742  0.4273675660227302  1.0000
  Sc  Sc2       1.0  0.6666669847440475  0.3333329859851446  0.5268838343982  1.0000
