data_image0
_chemical_formula_structural       C2ClNOY2
_chemical_formula_sum              "C2 Cl1 N1 O1 Y2"
_cell_length_a       3.690909151143937
_cell_length_b       3.69090915115742
_cell_length_c       26.242296396599322
_cell_angle_alpha    90.0
_cell_angle_beta     90.0
_cell_angle_gamma    119.99999999987915

_space_group_name_H-M_alt    "P 1"
_space_group_IT_number       1

loop_
  _space_group_symop_operation_xyz
  'x, y, z'

loop_
  _atom_site_type_symbol
  _atom_site_label
  _atom_site_symmetry_multiplicity
  _atom_site_fract_x
  _atom_site_fract_y
  _atom_site_fract_z
  _atom_site_occupancy
  C   C1        1.0  0.0  0.0  0.5383842236260186  1.0000
  C   C2        1.0  0.6666669847440474  0.3333329859851446  0.3882897699820841  1.0000
  Cl  Cl1       1.0  0.3333329854322145  0.6666669831836742  0.6570422091122222  1.0000
  N   N1        1.0  0.6666669847440474  0.3333329859851446  0.34295779088777795  1.0000
  O   O1        1.0  0.6666669847440474  0.3333329859851446  0.4390846354729336  1.0000
  Y   Y1        1.0  0.3333329854322145  0.6666669831836742  0.4867748173505518  1.0000
  Y   Y2        1.0  0.6666669847440474  0.3333329859851446  0.5901700193676866  1.0000
