data_image0
_chemical_formula_structural       Br2NZr2
_chemical_formula_sum              "Br2 N1 Zr2"
_cell_length_a       3.5181757093045922
_cell_length_b       3.518175709298113
_cell_length_c       24.11635572668181
_cell_angle_alpha    90.0
_cell_angle_beta     90.0
_cell_angle_gamma    120.00000000006094

_space_group_name_H-M_alt    "P 1"
_space_group_IT_number       1

loop_
  _space_group_symop_operation_xyz
  'x, y, z'

loop_
  _atom_site_type_symbol
  _atom_site_label
  _atom_site_symmetry_multiplicity
  _atom_site_fract_x
  _atom_site_fract_y
  _atom_site_fract_z
  _atom_site_occupancy
  Br  Br1       1.0  0.3333329854322145  0.6666669831836742  0.6268092865273754  1.0000
  Br  Br2       1.0  0.6666669847440474  0.3333329859851447  0.37319071347262467  1.0000
  N   N1        1.0  0.0  0.0  0.5000000312951234  1.0000
  Zr  Zr1       1.0  0.3333329854322145  0.6666669831836742  0.4538781663052697  1.0000
  Zr  Zr2       1.0  0.6666669847440474  0.3333329859851447  0.5461218332276306  1.0000
