data_image0
_chemical_formula_structural       CN2OSZr2
_chemical_formula_sum              "C1 N2 O1 S1 Zr2"
_cell_length_a       3.3165451409903546
_cell_length_b       3.316545140986626
_cell_length_c       25.763244792690557
_cell_angle_alpha    90.0
_cell_angle_beta     90.0
_cell_angle_gamma    120.00000000003719

_space_group_name_H-M_alt    "P 1"
_space_group_IT_number       1

loop_
  _space_group_symop_operation_xyz
  'x, y, z'

loop_
  _atom_site_type_symbol
  _atom_site_label
  _atom_site_symmetry_multiplicity
  _atom_site_fract_x
  _atom_site_fract_y
  _atom_site_fract_z
  _atom_site_occupancy
  C   C1        1.0  0.3333329854322145  0.6666669831836742  0.5904811198340749  1.0000
  N   N1        1.0  0.0  0.0  0.4372828859969725  1.0000
  N   N2        1.0  0.3333329854322145  0.6666669831836742  0.5416083129540727  1.0000
  O   O1        1.0  0.6666669847440474  0.3333329859851446  0.34933487891065035  1.0000
  S   S1        1.0  0.3333329854322145  0.6666669831836742  0.6506651210893498  1.0000
  Zr  Zr1       1.0  0.3333329854322145  0.6666669831836742  0.3867999580307115  1.0000
  Zr  Zr2       1.0  0.6666669847440474  0.3333329859851446  0.4884008534469614  1.0000
