data_image0
_chemical_formula_structural       CClHf2N2S
_chemical_formula_sum              "C1 Cl1 Hf2 N2 S1"
_cell_length_a       3.3708936695591176
_cell_length_b       3.3708936695528493
_cell_length_c       26.18464455436838
_cell_angle_alpha    90.0
_cell_angle_beta     90.0
_cell_angle_gamma    120.00000000006152

_space_group_name_H-M_alt    "P 1"
_space_group_IT_number       1

loop_
  _space_group_symop_operation_xyz
  'x, y, z'

loop_
  _atom_site_type_symbol
  _atom_site_label
  _atom_site_symmetry_multiplicity
  _atom_site_fract_x
  _atom_site_fract_y
  _atom_site_fract_z
  _atom_site_occupancy
  C   C1        1.0  0.3333329854322146  0.6666669831836742  0.5970767016376096  1.0000
  Cl  Cl1       1.0  0.6666669847440474  0.3333329859851446  0.343712895598521  1.0000
  Hf  Hf1       1.0  0.3333329854322146  0.6666669831836742  0.41176951363113384  1.0000
  Hf  Hf2       1.0  0.6666669847440474  0.3333329859851446  0.4981143492115289  1.0000
  N   N1        1.0  0.0  0.0  0.45461142950944533  1.0000
  N   N2        1.0  0.3333329854322146  0.6666669831836742  0.5487648025631446  1.0000
  S   S1        1.0  0.3333329854322146  0.6666669831836742  0.656287104401479  1.0000
