data_image0
_chemical_formula_structural       CHN2OTi2
_chemical_formula_sum              "C1 H1 N2 O1 Ti2"
_cell_length_a       3.128565936517211
_cell_length_b       3.1285659365181098
_cell_length_c       24.896015003820608
_cell_angle_alpha    90.0
_cell_angle_beta     90.0
_cell_angle_gamma    119.99999999999051

_space_group_name_H-M_alt    "P 1"
_space_group_IT_number       1

loop_
  _space_group_symop_operation_xyz
  'x, y, z'

loop_
  _atom_site_type_symbol
  _atom_site_label
  _atom_site_symmetry_multiplicity
  _atom_site_fract_x
  _atom_site_fract_y
  _atom_site_fract_z
  _atom_site_occupancy
  C   C1        1.0  0.3333329854322145  0.6666669831836742  0.5901382414356917  1.0000
  H   H1        1.0  0.6666669847440474  0.3333329859851446  0.3615036381773885  1.0000
  N   N1        1.0  0.0  0.0  0.4432947316280309  1.0000
  N   N2        1.0  0.3333329854322145  0.6666669831836742  0.5400725637778578  1.0000
  O   O1        1.0  0.3333329854322145  0.6666669831836742  0.6384963618226116  1.0000
  Ti  Ti1       1.0  0.3333329854322145  0.6666669831836742  0.40068308697249116  1.0000
  Ti  Ti2       1.0  0.6666669847440474  0.3333329859851446  0.48596876705656805  1.0000
