data_image0
_chemical_formula_structural       ClFNZr2
_chemical_formula_sum              "Cl1 F1 N1 Zr2"
_cell_length_a       3.4156077865531134
_cell_length_b       3.4156077865493124
_cell_length_c       23.37035328226348
_cell_angle_alpha    90.0
_cell_angle_beta     90.0
_cell_angle_gamma    120.0000000000368

_space_group_name_H-M_alt    "P 1"
_space_group_IT_number       1

loop_
  _space_group_symop_operation_xyz
  'x, y, z'

loop_
  _atom_site_type_symbol
  _atom_site_label
  _atom_site_symmetry_multiplicity
  _atom_site_fract_x
  _atom_site_fract_y
  _atom_site_fract_z
  _atom_site_occupancy
  Cl  Cl1       1.0  0.6666669847440474  0.3333329859851446  0.3851032926759559  1.0000
  F   F1        1.0  0.33333298543221457  0.6666669831836743  0.614896707324044  1.0000
  N   N1        1.0  0.0  0.0  0.5126815484590515  1.0000
  Zr  Zr1       1.0  0.33333298543221457  0.6666669831836743  0.4618537347537781  1.0000
  Zr  Zr2       1.0  0.6666669847440474  0.3333329859851446  0.5595796418820203  1.0000
