data_image0
_chemical_formula_structural       BrClHf2N
_chemical_formula_sum              "Br1 Cl1 Hf2 N1"
_cell_length_a       3.4336027194738503
_cell_length_b       3.433602719466861
_cell_length_c       23.88942782996021
_cell_angle_alpha    90.0
_cell_angle_beta     90.0
_cell_angle_gamma    120.00000000006735

_space_group_name_H-M_alt    "P 1"
_space_group_IT_number       1

loop_
  _space_group_symop_operation_xyz
  'x, y, z'

loop_
  _atom_site_type_symbol
  _atom_site_label
  _atom_site_symmetry_multiplicity
  _atom_site_fract_x
  _atom_site_fract_y
  _atom_site_fract_z
  _atom_site_occupancy
  Br  Br1       1.0  0.6666669847440474  0.3333329859851446  0.3767356867673876  1.0000
  Cl  Cl1       1.0  0.33333298543221446  0.6666669831836742  0.6232643132326126  1.0000
  Hf  Hf1       1.0  0.33333298543221446  0.6666669831836742  0.4579198618461833  1.0000
  Hf  Hf2       1.0  0.6666669847440474  0.3333329859851446  0.5497432836026532  1.0000
  N   N1        1.0  0.0  0.0  0.5041047970322796  1.0000
