data_image0
_chemical_formula_structural       NO2PSc2
_chemical_formula_sum              "N1 O2 P1 Sc2"
_cell_length_a       3.273380547043378
_cell_length_b       3.273380547037818
_cell_length_c       24.87079153803106
_cell_angle_alpha    90.0
_cell_angle_beta     90.0
_cell_angle_gamma    120.0000000000562

_space_group_name_H-M_alt    "P 1"
_space_group_IT_number       1

loop_
  _space_group_symop_operation_xyz
  'x, y, z'

loop_
  _atom_site_type_symbol
  _atom_site_label
  _atom_site_symmetry_multiplicity
  _atom_site_fract_x
  _atom_site_fract_y
  _atom_site_fract_z
  _atom_site_occupancy
  N   N1        1.0  0.0  0.0  0.4549040442293564  1.0000
  O   O1        1.0  0.3333329854322145  0.6666669831836741  0.6381297319694191  1.0000
  O   O2        1.0  0.6666669847440474  0.3333329859851446  0.3618702680305808  1.0000
  P   P1        1.0  0.3333329854322145  0.6666669831836741  0.5780780678473089  1.0000
  Sc  Sc1       1.0  0.3333329854322145  0.6666669831836741  0.3902178123377356  1.0000
  Sc  Sc2       1.0  0.6666669847440474  0.3333329859851446  0.49522077904000594  1.0000
