data_image0
_chemical_formula_structural       C3N2OSc2
_chemical_formula_sum              "C3 N2 O1 Sc2"
_cell_length_a       3.3896150541766037
_cell_length_b       3.389615054174153
_cell_length_c       26.902274337129175
_cell_angle_alpha    90.0
_cell_angle_beta     90.0
_cell_angle_gamma    120.0000000000239

_space_group_name_H-M_alt    "P 1"
_space_group_IT_number       1

loop_
  _space_group_symop_operation_xyz
  'x, y, z'

loop_
  _atom_site_type_symbol
  _atom_site_label
  _atom_site_symmetry_multiplicity
  _atom_site_fract_x
  _atom_site_fract_y
  _atom_site_fract_z
  _atom_site_occupancy
  C   C1        1.0  0.0  0.0  0.5214612848140692  1.0000
  C   C2        1.0  0.33333298543221457  0.6666669831836742  0.6209026174325926  1.0000
  C   C3        1.0  0.6666669847440474  0.3333329859851446  0.3793104854883798  1.0000
  N   N1        1.0  0.33333298543221457  0.6666669831836742  0.6654557942865578  1.0000
  N   N2        1.0  0.6666669847440474  0.3333329859851446  0.4256533355293365  1.0000
  O   O1        1.0  0.6666669847440474  0.3333329859851446  0.3345442057134421  1.0000
  Sc  Sc1       1.0  0.33333298543221457  0.6666669831836742  0.4748961317969687  1.0000
  Sc  Sc2       1.0  0.6666669847440474  0.3333329859851446  0.567660507014158  1.0000
