data_image0
_chemical_formula_structural       BrC2NTi2
_chemical_formula_sum              "Br1 C2 N1 Ti2"
_cell_length_a       3.247995036453981
_cell_length_b       3.247995036453976
_cell_length_c       24.63474441960105
_cell_angle_alpha    90.0
_cell_angle_beta     90.0
_cell_angle_gamma    120.00000000000007

_space_group_name_H-M_alt    "P 1"
_space_group_IT_number       1

loop_
  _space_group_symop_operation_xyz
  'x, y, z'

loop_
  _atom_site_type_symbol
  _atom_site_label
  _atom_site_symmetry_multiplicity
  _atom_site_fract_x
  _atom_site_fract_y
  _atom_site_fract_z
  _atom_site_occupancy
  Br  Br1       1.0  0.6666669847440473  0.3333329859851446  0.3653376648323982  1.0000
  C   C1        1.0  0.0  0.0  0.48415965736028316  1.0000
  C   C2        1.0  0.3333329854322145  0.6666669831836742  0.5858116195181717  1.0000
  N   N1        1.0  0.3333329854322145  0.6666669831836742  0.6346623351676017  1.0000
  Ti  Ti1       1.0  0.3333329854322145  0.6666669831836742  0.4401879781531913  1.0000
  Ti  Ti2       1.0  0.6666669847440473  0.3333329859851446  0.5296336615909604  1.0000
