data_image0
_chemical_formula_structural       C2N3OTi2
_chemical_formula_sum              "C2 N3 O1 Ti2"
_cell_length_a       3.1743543053737078
_cell_length_b       3.1743543053630847
_cell_length_c       26.522685733466535
_cell_angle_alpha    90.0
_cell_angle_beta     90.0
_cell_angle_gamma    120.0000000001107

_space_group_name_H-M_alt    "P 1"
_space_group_IT_number       1

loop_
  _space_group_symop_operation_xyz
  'x, y, z'

loop_
  _atom_site_type_symbol
  _atom_site_label
  _atom_site_symmetry_multiplicity
  _atom_site_fract_x
  _atom_site_fract_y
  _atom_site_fract_z
  _atom_site_occupancy
  C   C1        1.0  0.33333298543221446  0.6666669831836742  0.6153214614975346  1.0000
  C   C2        1.0  0.6666669847440474  0.3333329859851446  0.3841155897790073  1.0000
  N   N1        1.0  0.0  0.0  0.5216405801019002  1.0000
  N   N2        1.0  0.33333298543221446  0.6666669831836742  0.6606678490088306  1.0000
  N   N3        1.0  0.6666669847440474  0.3333329859851446  0.3393321509911694  1.0000
  O   O1        1.0  0.6666669847440474  0.3333329859851446  0.43449535316436844  1.0000
  Ti  Ti1       1.0  0.33333298543221446  0.6666669831836742  0.4829312863060972  1.0000
  Ti  Ti2       1.0  0.6666669847440474  0.3333329859851446  0.5619725396885693  1.0000
