data_image0
_chemical_formula_structural       C3N2SZr2
_chemical_formula_sum              "C3 N2 S1 Zr2"
_cell_length_a       3.4148686653992355
_cell_length_b       3.414868665393426
_cell_length_c       27.35560236140341
_cell_angle_alpha    90.0
_cell_angle_beta     90.0
_cell_angle_gamma    120.00000000005627

_space_group_name_H-M_alt    "P 1"
_space_group_IT_number       1

loop_
  _space_group_symop_operation_xyz
  'x, y, z'

loop_
  _atom_site_type_symbol
  _atom_site_label
  _atom_site_symmetry_multiplicity
  _atom_site_fract_x
  _atom_site_fract_y
  _atom_site_fract_z
  _atom_site_occupancy
  C   C1        1.0  0.0  0.0  0.5273627011310483  1.0000
  C   C2        1.0  0.3333329854322145  0.6666669831836742  0.6269815894615719  1.0000
  C   C3        1.0  0.6666669847440474  0.3333329859851446  0.3857979352895544  1.0000
  N   N1        1.0  0.3333329854322145  0.6666669831836742  0.6709997505776628  1.0000
  N   N2        1.0  0.6666669847440474  0.3333329859851446  0.431587442439475  1.0000
  S   S1        1.0  0.6666669847440474  0.3333329859851446  0.32900024942233735  1.0000
  Zr  Zr1       1.0  0.3333329854322145  0.6666669831836742  0.48225397476545245  1.0000
  Zr  Zr2       1.0  0.6666669847440474  0.3333329859851446  0.5727892329589584  1.0000
