data_image0
_chemical_formula_structural       CClN2SZr2
_chemical_formula_sum              "C1 Cl1 N2 S1 Zr2"
_cell_length_a       3.5071004414122777
_cell_length_b       3.5071004414078017
_cell_length_c       26.566706434411714
_cell_angle_alpha    90.0
_cell_angle_beta     90.0
_cell_angle_gamma    120.00000000004223

_space_group_name_H-M_alt    "P 1"
_space_group_IT_number       1

loop_
  _space_group_symop_operation_xyz
  'x, y, z'

loop_
  _atom_site_type_symbol
  _atom_site_label
  _atom_site_symmetry_multiplicity
  _atom_site_fract_x
  _atom_site_fract_y
  _atom_site_fract_z
  _atom_site_occupancy
  C   C1        1.0  0.3333329854322145  0.6666669831836742  0.6164123782985025  1.0000
  Cl  Cl1       1.0  0.6666669847440474  0.3333329859851446  0.33876988185266155  1.0000
  N   N1        1.0  0.0  0.0  0.4449344677132563  1.0000
  N   N2        1.0  0.3333329854322145  0.6666669831836742  0.6612301181473386  1.0000
  S   S1        1.0  0.3333329854322145  0.6666669831836742  0.5530370934264699  1.0000
  Zr  Zr1       1.0  0.3333329854322145  0.6666669831836742  0.4052649956844787  1.0000
  Zr  Zr2       1.0  0.6666669847440474  0.3333329859851446  0.49101059085999355  1.0000
