data_image0
_chemical_formula_structural       CHN2O2Ti2
_chemical_formula_sum              "C1 H1 N2 O2 Ti2"
_cell_length_a       3.1547274528779408
_cell_length_b       3.1547274528785234
_cell_length_c       26.131979241553427
_cell_angle_alpha    90.0
_cell_angle_beta     90.0
_cell_angle_gamma    119.99999999999389

_space_group_name_H-M_alt    "P 1"
_space_group_IT_number       1

loop_
  _space_group_symop_operation_xyz
  'x, y, z'

loop_
  _atom_site_type_symbol
  _atom_site_label
  _atom_site_symmetry_multiplicity
  _atom_site_fract_x
  _atom_site_fract_y
  _atom_site_fract_z
  _atom_site_occupancy
  C   C1        1.0  0.6666669847440473  0.3333329859851446  0.3898368548790136  1.0000
  H   H1        1.0  0.3333329854322145  0.6666669831836742  0.6555943996125343  1.0000
  N   N1        1.0  0.0  0.0  0.5300800539750923  1.0000
  N   N2        1.0  0.6666669847440473  0.3333329859851446  0.3444056003874658  1.0000
  O   O1        1.0  0.3333329854322145  0.6666669831836742  0.6178496862915983  1.0000
  O   O2        1.0  0.6666669847440473  0.3333329859851446  0.4409446032675259  1.0000
  Ti  Ti1       1.0  0.3333329854322145  0.6666669831836742  0.4903627156041933  1.0000
  Ti  Ti2       1.0  0.6666669847440473  0.3333329859851446  0.5706609605214286  1.0000
