data_image0
_chemical_formula_structural       C2N3OZr2
_chemical_formula_sum              "C2 N3 O1 Zr2"
_cell_length_a       3.3833855354361497
_cell_length_b       3.3833855354337428
_cell_length_c       26.924709060932297
_cell_angle_alpha    90.0
_cell_angle_beta     90.0
_cell_angle_gamma    120.00000000002353

_space_group_name_H-M_alt    "P 1"
_space_group_IT_number       1

loop_
  _space_group_symop_operation_xyz
  'x, y, z'

loop_
  _atom_site_type_symbol
  _atom_site_label
  _atom_site_symmetry_multiplicity
  _atom_site_fract_x
  _atom_site_fract_y
  _atom_site_fract_z
  _atom_site_occupancy
  C   C1        1.0  0.33333298543221446  0.6666669831836742  0.6209967932784075  1.0000
  C   C2        1.0  0.6666669847440472  0.33333298598514444  0.3790009296889679  1.0000
  N   N1        1.0  0.0  0.0  0.5216059561644826  1.0000
  N   N2        1.0  0.33333298543221446  0.6666669831836742  0.6657345496423959  1.0000
  N   N3        1.0  0.6666669847440472  0.33333298598514444  0.4253591326051489  1.0000
  O   O1        1.0  0.6666669847440472  0.33333298598514444  0.33426545035760413  1.0000
  Zr  Zr1       1.0  0.33333298543221446  0.6666669831836742  0.4788424109967286  1.0000
  Zr  Zr2       1.0  0.6666669847440472  0.33333298598514444  0.5654887972730898  1.0000
