data_image0
_chemical_formula_structural       BrNOY2
_chemical_formula_sum              "Br1 N1 O1 Y2"
_cell_length_a       3.630425280761223
_cell_length_b       3.630425280771269
_cell_length_c       23.47455724684878
_cell_angle_alpha    90.0
_cell_angle_beta     90.0
_cell_angle_gamma    119.99999999990847

_space_group_name_H-M_alt    "P 1"
_space_group_IT_number       1

loop_
  _space_group_symop_operation_xyz
  'x, y, z'

loop_
  _atom_site_type_symbol
  _atom_site_label
  _atom_site_symmetry_multiplicity
  _atom_site_fract_x
  _atom_site_fract_y
  _atom_site_fract_z
  _atom_site_occupancy
  Br  Br1       1.0  0.6666669847440474  0.3333329859851446  0.3833938125162364  1.0000
  N   N1        1.0  0.0  0.0  0.5144415609789379  1.0000
  O   O1        1.0  0.3333329854322146  0.6666669831836743  0.6166061874837636  1.0000
  Y   Y1        1.0  0.3333329854322146  0.6666669831836743  0.46902595235018957  1.0000
  Y   Y2        1.0  0.6666669847440474  0.3333329859851446  0.5882792277890216  1.0000
