data_image0
_chemical_formula_structural       CHf2O2
_chemical_formula_sum              "C1 Hf2 O2"
_cell_length_a       3.273794048669159
_cell_length_b       3.273794048636541
_cell_length_c       22.599091213310306
_cell_angle_alpha    90.0
_cell_angle_beta     90.0
_cell_angle_gamma    120.00000000032959

_space_group_name_H-M_alt    "P 1"
_space_group_IT_number       1

loop_
  _space_group_symop_operation_xyz
  'x, y, z'

loop_
  _atom_site_type_symbol
  _atom_site_label
  _atom_site_symmetry_multiplicity
  _atom_site_fract_x
  _atom_site_fract_y
  _atom_site_fract_z
  _atom_site_occupancy
  C   C1        1.0  0.0  0.0  0.5000000385682306  1.0000
  Hf  Hf1       1.0  0.3333329854322145  0.6666669831836741  0.43906481009430737  1.0000
  Hf  Hf2       1.0  0.6666669847440474  0.3333329859851445  0.5609351893300369  1.0000
  O   O1        1.0  0.3333329854322145  0.6666669831836741  0.6017538973116219  1.0000
  O   O2        1.0  0.6666669847440474  0.3333329859851445  0.3982461026883782  1.0000
