data_image0
_chemical_formula_structural       CHO2PY2
_chemical_formula_sum              "C1 H1 O2 P1 Y2"
_cell_length_a       3.606846367806529
_cell_length_b       3.606846367837679
_cell_length_c       26.629124353270292
_cell_angle_alpha    90.0
_cell_angle_beta     90.0
_cell_angle_gamma    119.99999999971433

_space_group_name_H-M_alt    "P 1"
_space_group_IT_number       1

loop_
  _space_group_symop_operation_xyz
  'x, y, z'

loop_
  _atom_site_type_symbol
  _atom_site_label
  _atom_site_symmetry_multiplicity
  _atom_site_fract_x
  _atom_site_fract_y
  _atom_site_fract_z
  _atom_site_occupancy
  C   C1        1.0  0.0  0.0  0.4754410679838286  1.0000
  H   H1        1.0  0.6666669847440475  0.3333329859851445  0.3379758147734482  1.0000
  O   O1        1.0  0.33333298543221457  0.6666669831836742  0.6620241852265518  1.0000
  O   O2        1.0  0.6666669847440475  0.3333329859851445  0.3749853984948599  1.0000
  P   P1        1.0  0.33333298543221457  0.6666669831836742  0.6057629633965564  1.0000
  Y   Y1        1.0  0.33333298543221457  0.6666669831836742  0.4232090167135265  1.0000
  Y   Y2        1.0  0.6666669847440475  0.3333329859851445  0.5255641211184323  1.0000
