data_image0
_chemical_formula_structural       BrCN2OTi2
_chemical_formula_sum              "Br1 C1 N2 O1 Ti2"
_cell_length_a       3.2543216542219047
_cell_length_b       3.2543216542213265
_cell_length_c       25.66574158342432
_cell_angle_alpha    90.0
_cell_angle_beta     90.0
_cell_angle_gamma    120.00000000000587

_space_group_name_H-M_alt    "P 1"
_space_group_IT_number       1

loop_
  _space_group_symop_operation_xyz
  'x, y, z'

loop_
  _atom_site_type_symbol
  _atom_site_label
  _atom_site_symmetry_multiplicity
  _atom_site_fract_x
  _atom_site_fract_y
  _atom_site_fract_z
  _atom_site_occupancy
  Br  Br1       1.0  0.3333329854322145  0.6666669831836743  0.6493380107196102  1.0000
  C   C1        1.0  0.6666669847440473  0.33333298598514477  0.3969530348323936  1.0000
  N   N1        1.0  0.0  0.0  0.5371978095592634  1.0000
  N   N2        1.0  0.6666669847440473  0.33333298598514477  0.35066198928039  1.0000
  O   O1        1.0  0.6666669847440473  0.33333298598514477  0.4489606770030084  1.0000
  Ti  Ti1       1.0  0.3333329854322145  0.6666669831836743  0.498168308890197  1.0000
  Ti  Ti2       1.0  0.6666669847440473  0.33333298598514477  0.5772274978036255  1.0000
