data_image0
_chemical_formula_structural       C2HNOSZr2
_chemical_formula_sum              "C2 H1 N1 O1 S1 Zr2"
_cell_length_a       3.384936404480381
_cell_length_b       3.384936404482613
_cell_length_c       27.013050678223493
_cell_angle_alpha    90.0
_cell_angle_beta     90.0
_cell_angle_gamma    119.99999999997819

_space_group_name_H-M_alt    "P 1"
_space_group_IT_number       1

loop_
  _space_group_symop_operation_xyz
  'x, y, z'

loop_
  _atom_site_type_symbol
  _atom_site_label
  _atom_site_symmetry_multiplicity
  _atom_site_fract_x
  _atom_site_fract_y
  _atom_site_fract_z
  _atom_site_occupancy
  C   C1        1.0  0.0  0.0  0.46449322090477924  1.0000
  C   C2        1.0  0.3333329854322145  0.6666669831836741  0.6092968458627631  1.0000
  H   H1        1.0  0.6666669847440474  0.3333329859851446  0.33317229168993223  1.0000
  N   N1        1.0  0.3333329854322145  0.6666669831836741  0.5629313274952399  1.0000
  O   O1        1.0  0.6666669847440474  0.3333329859851446  0.3696968536207147  1.0000
  S   S1        1.0  0.3333329854322145  0.6666669831836741  0.6668277083100677  1.0000
  Zr  Zr1       1.0  0.3333329854322145  0.6666669831836741  0.4195869544671966  1.0000
  Zr  Zr2       1.0  0.6666669847440474  0.3333329859851446  0.5110600549117077  1.0000
