data_image0
_chemical_formula_structural       ClNOY2
_chemical_formula_sum              "Cl1 N1 O1 Y2"
_cell_length_a       3.606519789010019
_cell_length_b       3.6065197890174376
_cell_length_c       23.317701399138464
_cell_angle_alpha    90.0
_cell_angle_beta     90.0
_cell_angle_gamma    119.99999999993196

_space_group_name_H-M_alt    "P 1"
_space_group_IT_number       1

loop_
  _space_group_symop_operation_xyz
  'x, y, z'

loop_
  _atom_site_type_symbol
  _atom_site_label
  _atom_site_symmetry_multiplicity
  _atom_site_fract_x
  _atom_site_fract_y
  _atom_site_fract_z
  _atom_site_occupancy
  Cl  Cl1       1.0  0.6666669847440474  0.3333329859851446  0.3859728643893059  1.0000
  N   N1        1.0  0.0  0.0  0.5103559551580923  1.0000
  O   O1        1.0  0.3333329854322145  0.6666669831836742  0.6140271356106941  1.0000
  Y   Y1        1.0  0.3333329854322145  0.6666669831836742  0.46408013730078956  1.0000
  Y   Y2        1.0  0.6666669847440474  0.3333329859851446  0.5848305553312613  1.0000
