data_image0
_chemical_formula_structural       ClHf2N2O
_chemical_formula_sum              "Cl1 Hf2 N2 O1"
_cell_length_a       3.3266283907349417
_cell_length_b       3.3266283907245278
_cell_length_c       24.671207640868516
_cell_angle_alpha    90.0
_cell_angle_beta     90.0
_cell_angle_gamma    120.00000000010355

_space_group_name_H-M_alt    "P 1"
_space_group_IT_number       1

loop_
  _space_group_symop_operation_xyz
  'x, y, z'

loop_
  _atom_site_type_symbol
  _atom_site_label
  _atom_site_symmetry_multiplicity
  _atom_site_fract_x
  _atom_site_fract_y
  _atom_site_fract_z
  _atom_site_occupancy
  Cl  Cl1       1.0  0.6666669847440474  0.3333329859851446  0.36479770796024025  1.0000
  Hf  Hf1       1.0  0.3333329854322146  0.6666669831836743  0.43803835662575974  1.0000
  Hf  Hf2       1.0  0.6666669847440474  0.3333329859851446  0.5377971799330459  1.0000
  N   N1        1.0  0.0  0.0  0.4837812768473126  1.0000
  N   N2        1.0  0.3333329854322146  0.6666669831836743  0.5808768451876116  1.0000
  O   O1        1.0  0.3333329854322146  0.6666669831836743  0.6352022920397599  1.0000
