data_image0
_chemical_formula_structural       CHO2Sc2
_chemical_formula_sum              "C1 H1 O2 Sc2"
_cell_length_a       3.274185235509708
_cell_length_b       3.274185235500721
_cell_length_c       23.901503200551552
_cell_angle_alpha    90.0
_cell_angle_beta     90.0
_cell_angle_gamma    120.00000000009081

_space_group_name_H-M_alt    "P 1"
_space_group_IT_number       1

loop_
  _space_group_symop_operation_xyz
  'x, y, z'

loop_
  _atom_site_type_symbol
  _atom_site_label
  _atom_site_symmetry_multiplicity
  _atom_site_fract_x
  _atom_site_fract_y
  _atom_site_fract_z
  _atom_site_occupancy
  C   C1        1.0  0.0  0.0  0.5222420659778554  1.0000
  H   H1        1.0  0.6666669847440474  0.3333329859851446  0.37654535467845873  1.0000
  O   O1        1.0  0.3333329854322145  0.6666669831836742  0.6234546453215413  1.0000
  O   O2        1.0  0.6666669847440474  0.3333329859851446  0.41772231284940975  1.0000
  Sc  Sc1       1.0  0.3333329854322145  0.6666669831836742  0.4701325764637089  1.0000
  Sc  Sc2       1.0  0.6666669847440474  0.3333329859851446  0.5928364864757705  1.0000
