data_image0
_chemical_formula_structural       C2N3OZr2
_chemical_formula_sum              "C2 N3 O1 Zr2"
_cell_length_a       3.389645264923446
_cell_length_b       3.38964526491066
_cell_length_c       26.911197676914213
_cell_angle_alpha    90.0
_cell_angle_beta     90.0
_cell_angle_gamma    120.0000000001248

_space_group_name_H-M_alt    "P 1"
_space_group_IT_number       1

loop_
  _space_group_symop_operation_xyz
  'x, y, z'

loop_
  _atom_site_type_symbol
  _atom_site_label
  _atom_site_symmetry_multiplicity
  _atom_site_fract_x
  _atom_site_fract_y
  _atom_site_fract_z
  _atom_site_occupancy
  C   C1        1.0  0.3333329854322145  0.6666669831836742  0.6207938358772941  1.0000
  C   C2        1.0  0.6666669847440474  0.3333329859851446  0.378583727740438  1.0000
  N   N1        1.0  0.0  0.0  0.5212677456188832  1.0000
  N   N2        1.0  0.3333329854322145  0.6666669831836742  0.6655667240064661  1.0000
  N   N3        1.0  0.6666669847440474  0.3333329859851446  0.33443327599353395  1.0000
  O   O1        1.0  0.6666669847440474  0.3333329859851446  0.428264947111818  1.0000
  Zr  Zr1       1.0  0.3333329854322145  0.6666669831836742  0.4793589027363353  1.0000
  Zr  Zr2       1.0  0.6666669847440474  0.3333329859851446  0.5654797536702488  1.0000
