data_image0
_chemical_formula_structural       C2Hf2NOS
_chemical_formula_sum              "C2 Hf2 N1 O1 S1"
_cell_length_a       3.3019872992110044
_cell_length_b       3.301987299207884
_cell_length_c       25.71341756876541
_cell_angle_alpha    90.0
_cell_angle_beta     90.0
_cell_angle_gamma    120.00000000003126

_space_group_name_H-M_alt    "P 1"
_space_group_IT_number       1

loop_
  _space_group_symop_operation_xyz
  'x, y, z'

loop_
  _atom_site_type_symbol
  _atom_site_label
  _atom_site_symmetry_multiplicity
  _atom_site_fract_x
  _atom_site_fract_y
  _atom_site_fract_z
  _atom_site_occupancy
  C   C1        1.0  0.0  0.0  0.4402421499209094  1.0000
  C   C2        1.0  0.3333329854322145  0.6666669831836742  0.5897905360484784  1.0000
  Hf  Hf1       1.0  0.3333329854322145  0.6666669831836742  0.3863921917861544  1.0000
  Hf  Hf2       1.0  0.6666669847440475  0.3333329859851446  0.4892375201396066  1.0000
  N   N1        1.0  0.3333329854322145  0.6666669831836742  0.540387611331312  1.0000
  O   O1        1.0  0.6666669847440475  0.3333329859851446  0.35001181682408783  1.0000
  S   S1        1.0  0.3333329854322145  0.6666669831836742  0.6499881831759122  1.0000
