data_image0
_chemical_formula_structural       CHNOSc2
_chemical_formula_sum              "C1 H1 N1 O1 Sc2"
_cell_length_a       3.3406883957221547
_cell_length_b       3.3406883957192335
_cell_length_c       24.076858093841537
_cell_angle_alpha    90.0
_cell_angle_beta     90.0
_cell_angle_gamma    120.00000000002892

_space_group_name_H-M_alt    "P 1"
_space_group_IT_number       1

loop_
  _space_group_symop_operation_xyz
  'x, y, z'

loop_
  _atom_site_type_symbol
  _atom_site_label
  _atom_site_symmetry_multiplicity
  _atom_site_fract_x
  _atom_site_fract_y
  _atom_site_fract_z
  _atom_site_occupancy
  C   C1        1.0  0.0  0.0  0.46698202008751216  1.0000
  H   H1        1.0  0.6666669847440474  0.3333329859851446  0.373802925818716  1.0000
  N   N1        1.0  0.3333329854322145  0.6666669831836742  0.5727388363755354  1.0000
  O   O1        1.0  0.3333329854322145  0.6666669831836742  0.626197074181284  1.0000
  Sc  Sc1       1.0  0.3333329854322145  0.6666669831836742  0.4153838102016142  1.0000
  Sc  Sc2       1.0  0.6666669847440474  0.3333329859851446  0.5201428385874903  1.0000
