data_image0
_chemical_formula_structural       BrCN2OTi2
_chemical_formula_sum              "Br1 C1 N2 O1 Ti2"
_cell_length_a       3.249557475819113
_cell_length_b       3.2495574758156405
_cell_length_c       25.669904868154227
_cell_angle_alpha    90.0
_cell_angle_beta     90.0
_cell_angle_gamma    120.00000000003536

_space_group_name_H-M_alt    "P 1"
_space_group_IT_number       1

loop_
  _space_group_symop_operation_xyz
  'x, y, z'

loop_
  _atom_site_type_symbol
  _atom_site_label
  _atom_site_symmetry_multiplicity
  _atom_site_fract_x
  _atom_site_fract_y
  _atom_site_fract_z
  _atom_site_occupancy
  Br  Br1       1.0  0.6666669847440474  0.3333329859851446  0.3506051170125406  1.0000
  C   C1        1.0  0.3333329854322145  0.6666669831836742  0.6024662266429573  1.0000
  N   N1        1.0  0.0  0.0  0.4626448225703782  1.0000
  N   N2        1.0  0.3333329854322145  0.6666669831836742  0.5538964494065051  1.0000
  O   O1        1.0  0.3333329854322145  0.6666669831836742  0.6493948829874595  1.0000
  Ti  Ti1       1.0  0.3333329854322145  0.6666669831836742  0.4229029976641975  1.0000
  Ti  Ti2       1.0  0.6666669847440474  0.3333329859851446  0.5023834106883138  1.0000
