data_image0
_chemical_formula_structural       CClN2STi2
_chemical_formula_sum              "C1 Cl1 N2 S1 Ti2"
_cell_length_a       3.2376165704736612
_cell_length_b       3.237616570462066
_cell_length_c       25.83442183940114
_cell_angle_alpha    90.0
_cell_angle_beta     90.0
_cell_angle_gamma    120.00000000011849

_space_group_name_H-M_alt    "P 1"
_space_group_IT_number       1

loop_
  _space_group_symop_operation_xyz
  'x, y, z'

loop_
  _atom_site_type_symbol
  _atom_site_label
  _atom_site_symmetry_multiplicity
  _atom_site_fract_x
  _atom_site_fract_y
  _atom_site_fract_z
  _atom_site_occupancy
  C   C1        1.0  0.3333329854322145  0.6666669831836742  0.5915973662920935  1.0000
  Cl  Cl1       1.0  0.6666669847440474  0.3333329859851446  0.34837241785197337  1.0000
  N   N1        1.0  0.0  0.0  0.4529457265155487  1.0000
  N   N2        1.0  0.3333329854322145  0.6666669831836742  0.5431278132841604  1.0000
  S   S1        1.0  0.3333329854322145  0.6666669831836742  0.6516275821480266  1.0000
  Ti  Ti1       1.0  0.3333329854322145  0.6666669831836742  0.41366997055098403  1.0000
  Ti  Ti2       1.0  0.6666669847440474  0.3333329859851446  0.4936513570639403  1.0000
