data_image0
_chemical_formula_structural       C3N2OSTi2
_chemical_formula_sum              "C3 N2 O1 S1 Ti2"
_cell_length_a       3.202512715917333
_cell_length_b       3.2025127159231226
_cell_length_c       28.121330908873755
_cell_angle_alpha    90.0
_cell_angle_beta     90.0
_cell_angle_gamma    119.9999999999402

_space_group_name_H-M_alt    "P 1"
_space_group_IT_number       1

loop_
  _space_group_symop_operation_xyz
  'x, y, z'

loop_
  _atom_site_type_symbol
  _atom_site_label
  _atom_site_symmetry_multiplicity
  _atom_site_fract_x
  _atom_site_fract_y
  _atom_site_fract_z
  _atom_site_occupancy
  C   C1        1.0  0.0  0.0  0.4941324784870885  1.0000
  C   C2        1.0  0.3333329854322145  0.6666669831836742  0.6248427716059087  1.0000
  C   C3        1.0  0.6666669847440474  0.3333329859851446  0.3622933094894173  1.0000
  N   N1        1.0  0.3333329854322145  0.6666669831836742  0.580275961159455  1.0000
  N   N2        1.0  0.6666669847440474  0.3333329859851446  0.3200417515502451  1.0000
  O   O1        1.0  0.6666669847440474  0.3333329859851446  0.40971568306006045  1.0000
  S   S1        1.0  0.3333329854322145  0.6666669831836742  0.6799582484497549  1.0000
  Ti  Ti1       1.0  0.3333329854322145  0.6666669831836742  0.45562703051404446  1.0000
  Ti  Ti2       1.0  0.6666669847440474  0.3333329859851446  0.5348028321562557  1.0000
