data_image0
_chemical_formula_structural       C3Hf2N2S2
_chemical_formula_sum              "C3 Hf2 N2 S2"
_cell_length_a       3.5325800851874343
_cell_length_b       3.532580085175043
_cell_length_c       29.322337040585637
_cell_angle_alpha    90.0
_cell_angle_beta     90.0
_cell_angle_gamma    120.00000000011605

_space_group_name_H-M_alt    "P 1"
_space_group_IT_number       1

loop_
  _space_group_symop_operation_xyz
  'x, y, z'

loop_
  _atom_site_type_symbol
  _atom_site_label
  _atom_site_symmetry_multiplicity
  _atom_site_fract_x
  _atom_site_fract_y
  _atom_site_fract_z
  _atom_site_occupancy
  C   C1        1.0  0.0  0.0  0.5000000257199284  1.0000
  C   C2        1.0  0.33333298543221446  0.6666669831836742  0.6524705804487465  1.0000
  C   C3        1.0  0.6666669847440473  0.3333329859851446  0.3475294199322894  1.0000
  Hf  Hf1       1.0  0.33333298543221446  0.6666669831836742  0.4609937497181928  1.0000
  Hf  Hf2       1.0  0.6666669847440473  0.3333329859851446  0.5390062502818  1.0000
  N   N1        1.0  0.33333298543221446  0.6666669831836742  0.6930667570070245  1.0000
  N   N2        1.0  0.6666669847440473  0.3333329859851446  0.3069332429929756  1.0000
  S   S1        1.0  0.33333298543221446  0.6666669831836742  0.5949630343742266  1.0000
  S   S2        1.0  0.6666669847440473  0.3333329859851446  0.4050369660068093  1.0000
