data_image0
_chemical_formula_structural       CHHf2O2P
_chemical_formula_sum              "C1 H1 Hf2 O2 P1"
_cell_length_a       3.264363301863508
_cell_length_b       3.264363301851611
_cell_length_c       26.307868527408544
_cell_angle_alpha    90.0
_cell_angle_beta     90.0
_cell_angle_gamma    120.00000000012058

_space_group_name_H-M_alt    "P 1"
_space_group_IT_number       1

loop_
  _space_group_symop_operation_xyz
  'x, y, z'

loop_
  _atom_site_type_symbol
  _atom_site_label
  _atom_site_symmetry_multiplicity
  _atom_site_fract_x
  _atom_site_fract_y
  _atom_site_fract_z
  _atom_site_occupancy
  C   C1        1.0  0.0  0.0  0.4765769551721835  1.0000
  H   H1        1.0  0.6666669847440474  0.3333329859851446  0.3421029716118376  1.0000
  Hf  Hf1       1.0  0.3333329854322146  0.6666669831836743  0.4302042731225639  1.0000
  Hf  Hf2       1.0  0.6666669847440474  0.3333329859851446  0.526180798540997  1.0000
  O   O1        1.0  0.3333329854322146  0.6666669831836743  0.6578970283881624  1.0000
  O   O2        1.0  0.6666669847440474  0.3333329859851446  0.3798760415693295  1.0000
  P   P1        1.0  0.3333329854322146  0.6666669831836743  0.6011540716084256  1.0000
