data_image0
_chemical_formula_structural       C2ClNSSc2
_chemical_formula_sum              "C2 Cl1 N1 S1 Sc2"
_cell_length_a       3.5177009812184434
_cell_length_b       3.5177009812096025
_cell_length_c       26.56700176397158
_cell_angle_alpha    90.0
_cell_angle_beta     90.0
_cell_angle_gamma    120.00000000008315

_space_group_name_H-M_alt    "P 1"
_space_group_IT_number       1

loop_
  _space_group_symop_operation_xyz
  'x, y, z'

loop_
  _atom_site_type_symbol
  _atom_site_label
  _atom_site_symmetry_multiplicity
  _atom_site_fract_x
  _atom_site_fract_y
  _atom_site_fract_z
  _atom_site_occupancy
  C   C1        1.0  0.0  0.0  0.4466783113424355  1.0000
  C   C2        1.0  0.3333329854322145  0.6666669831836741  0.6164269301561043  1.0000
  Cl  Cl1       1.0  0.6666669847440476  0.3333329859851446  0.3387661159493431  1.0000
  N   N1        1.0  0.3333329854322145  0.6666669831836741  0.6612338840506569  1.0000
  S   S1        1.0  0.3333329854322145  0.6666669831836741  0.5534652665902806  1.0000
  Sc  Sc1       1.0  0.3333329854322145  0.6666669831836741  0.4006081639612067  1.0000
  Sc  Sc2       1.0  0.6666669847440476  0.3333329859851446  0.4921949758479923  1.0000
