data_image0
_chemical_formula_structural       CFHf2NO
_chemical_formula_sum              "C1 F1 Hf2 N1 O1"
_cell_length_a       3.3704828385013936
_cell_length_b       3.370482838500105
_cell_length_c       24.115359509961586
_cell_angle_alpha    90.0
_cell_angle_beta     90.0
_cell_angle_gamma    120.00000000001266

_space_group_name_H-M_alt    "P 1"
_space_group_IT_number       1

loop_
  _space_group_symop_operation_xyz
  'x, y, z'

loop_
  _atom_site_type_symbol
  _atom_site_label
  _atom_site_symmetry_multiplicity
  _atom_site_fract_x
  _atom_site_fract_y
  _atom_site_fract_z
  _atom_site_occupancy
  C   C1        1.0  0.0  0.0  0.4714200333411604  1.0000
  F   F1        1.0  0.6666669847440473  0.3333329859851447  0.3732061301546127  1.0000
  Hf  Hf1       1.0  0.33333298543221457  0.6666669831836742  0.4264391030830131  1.0000
  Hf  Hf2       1.0  0.6666669847440473  0.3333329859851447  0.5323577986478512  1.0000
  N   N1        1.0  0.33333298543221457  0.6666669831836742  0.5709239452245332  1.0000
  O   O1        1.0  0.33333298543221457  0.6666669831836742  0.6267938698453873  1.0000
