data_image0
_chemical_formula_structural       NO2Ti2
_chemical_formula_sum              "N1 O2 Ti2"
_cell_length_a       3.0586504396210956
_cell_length_b       3.058650439597612
_cell_length_c       22.353652767324302
_cell_angle_alpha    90.0
_cell_angle_beta     90.0
_cell_angle_gamma    120.00000000025398

_space_group_name_H-M_alt    "P 1"
_space_group_IT_number       1

loop_
  _space_group_symop_operation_xyz
  'x, y, z'

loop_
  _atom_site_type_symbol
  _atom_site_label
  _atom_site_symmetry_multiplicity
  _atom_site_fract_x
  _atom_site_fract_y
  _atom_site_fract_z
  _atom_site_occupancy
  N   N1        1.0  0.0  0.0  0.5000000446699232  1.0000
  O   O1        1.0  0.3333329854322145  0.6666669831836742  0.5973812381502208  1.0000
  O   O2        1.0  0.6666669847440475  0.3333329859851446  0.4026187618497792  1.0000
  Ti  Ti1       1.0  0.3333329854322145  0.6666669831836742  0.4433246225760164  1.0000
  Ti  Ti2       1.0  0.6666669847440475  0.3333329859851446  0.5566753767572561  1.0000
