data_image0
_chemical_formula_structural       CCl2O2Sc2
_chemical_formula_sum              "C1 Cl2 O2 Sc2"
_cell_length_a       3.406718790553284
_cell_length_b       3.4067187905265333
_cell_length_c       26.204477218597162
_cell_angle_alpha    90.0
_cell_angle_beta     90.0
_cell_angle_gamma    120.00000000025976

_space_group_name_H-M_alt    "P 1"
_space_group_IT_number       1

loop_
  _space_group_symop_operation_xyz
  'x, y, z'

loop_
  _atom_site_type_symbol
  _atom_site_label
  _atom_site_symmetry_multiplicity
  _atom_site_fract_x
  _atom_site_fract_y
  _atom_site_fract_z
  _atom_site_occupancy
  C   C1        1.0  0.0  0.0  0.5000000307167587  1.0000
  Cl  Cl1       1.0  0.3333329854322145  0.6666669831836742  0.6565472409572533  1.0000
  Cl  Cl2       1.0  0.6666669847440473  0.3333329859851446  0.3434527590427469  1.0000
  O   O1        1.0  0.3333329854322145  0.6666669831836742  0.5899558678187646  1.0000
  O   O2        1.0  0.6666669847440473  0.3333329859851446  0.4100441321812436  1.0000
  Sc  Sc1       1.0  0.3333329854322145  0.6666669831836742  0.45203356241979925  1.0000
  Sc  Sc2       1.0  0.6666669847440473  0.3333329859851446  0.5479664371217418  1.0000
