data_image0
_chemical_formula_structural       Cl2NOY2
_chemical_formula_sum              "Cl2 N1 O1 Y2"
_cell_length_a       3.753415036019084
_cell_length_b       3.7534150360235965
_cell_length_c       24.89766435290931
_cell_angle_alpha    90.0
_cell_angle_beta     90.0
_cell_angle_gamma    119.99999999996022

_space_group_name_H-M_alt    "P 1"
_space_group_IT_number       1

loop_
  _space_group_symop_operation_xyz
  'x, y, z'

loop_
  _atom_site_type_symbol
  _atom_site_label
  _atom_site_symmetry_multiplicity
  _atom_site_fract_x
  _atom_site_fract_y
  _atom_site_fract_z
  _atom_site_occupancy
  Cl  Cl1       1.0  0.3333329854322144  0.666666983183674  0.6385203096792353  1.0000
  Cl  Cl2       1.0  0.6666669847440476  0.3333329859851445  0.3614796903207648  1.0000
  N   N1        1.0  0.0  0.0  0.4619075451088711  1.0000
  O   O1        1.0  0.3333329854322144  0.666666983183674  0.530807494778468  1.0000
  Y   Y1        1.0  0.3333329854322144  0.666666983183674  0.4335481627207491  1.0000
  Y   Y2        1.0  0.6666669847440476  0.3333329859851445  0.5588421996362081  1.0000
