data_image0
_chemical_formula_structural       CClFOZr2
_chemical_formula_sum              "C1 Cl1 F1 O1 Zr2"
_cell_length_a       3.3416508380909895
_cell_length_b       3.341650838090447
_cell_length_c       26.39292588771344
_cell_angle_alpha    90.0
_cell_angle_beta     90.0
_cell_angle_gamma    120.00000000000539

_space_group_name_H-M_alt    "P 1"
_space_group_IT_number       1

loop_
  _space_group_symop_operation_xyz
  'x, y, z'

loop_
  _atom_site_type_symbol
  _atom_site_label
  _atom_site_symmetry_multiplicity
  _atom_site_fract_x
  _atom_site_fract_y
  _atom_site_fract_z
  _atom_site_occupancy
  C   C1        1.0  0.0  0.0  0.4371097858934171  1.0000
  Cl  Cl1       1.0  0.33333298543221446  0.6666669831836742  0.6589995350159445  1.0000
  F   F1        1.0  0.6666669847440474  0.3333329859851446  0.3410004649840556  1.0000
  O   O1        1.0  0.33333298543221446  0.6666669831836742  0.5264081115570602  1.0000
  Zr  Zr1       1.0  0.33333298543221446  0.6666669831836742  0.3907200951212962  1.0000
  Zr  Zr2       1.0  0.6666669847440474  0.3333329859851446  0.4925947676110636  1.0000
