data_image0
_chemical_formula_structural       C2N3OSSc2
_chemical_formula_sum              "C2 N3 O1 S1 Sc2"
_cell_length_a       3.3988576199145735
_cell_length_b       3.398857619923593
_cell_length_c       28.639114028214305
_cell_angle_alpha    90.0
_cell_angle_beta     90.0
_cell_angle_gamma    119.9999999999122

_space_group_name_H-M_alt    "P 1"
_space_group_IT_number       1

loop_
  _space_group_symop_operation_xyz
  'x, y, z'

loop_
  _atom_site_type_symbol
  _atom_site_label
  _atom_site_symmetry_multiplicity
  _atom_site_fract_x
  _atom_site_fract_y
  _atom_site_fract_z
  _atom_site_occupancy
  C   C1        1.0  0.33333298543221446  0.6666669831836742  0.6437077445822383  1.0000
  C   C2        1.0  0.6666669847440473  0.3333329859851446  0.3558179609915378  1.0000
  N   N1        1.0  0.0  0.0  0.5137203759935471  1.0000
  N   N2        1.0  0.33333298543221446  0.6666669831836742  0.6001506126045301  1.0000
  N   N3        1.0  0.6666669847440473  0.3333329859851446  0.314255531478156  1.0000
  O   O1        1.0  0.33333298543221446  0.6666669831836742  0.685744468521844  1.0000
  S   S1        1.0  0.6666669847440473  0.3333329859851446  0.414284402688455  1.0000
  Sc  Sc1       1.0  0.33333298543221446  0.6666669831836742  0.4711452750892514  1.0000
  Sc  Sc2       1.0  0.6666669847440473  0.3333329859851446  0.5541449582491672  1.0000
