data_image0
_chemical_formula_structural       C2NOPSTi2
_chemical_formula_sum              "C2 N1 O1 P1 S1 Ti2"
_cell_length_a       3.1806475437602293
_cell_length_b       3.1806475437615753
_cell_length_c       27.699093104867593
_cell_angle_alpha    90.0
_cell_angle_beta     90.0
_cell_angle_gamma    119.999999999986

_space_group_name_H-M_alt    "P 1"
_space_group_IT_number       1

loop_
  _space_group_symop_operation_xyz
  'x, y, z'

loop_
  _atom_site_type_symbol
  _atom_site_label
  _atom_site_symmetry_multiplicity
  _atom_site_fract_x
  _atom_site_fract_y
  _atom_site_fract_z
  _atom_site_occupancy
  C   C1        1.0  0.0  0.0  0.4863671024002784  1.0000
  C   C2        1.0  0.3333329854322145  0.6666669831836742  0.619156961782279  1.0000
  N   N1        1.0  0.3333329854322145  0.6666669831836742  0.573817316268454  1.0000
  O   O1        1.0  0.6666669847440474  0.3333329859851446  0.3249203851521919  1.0000
  P   P1        1.0  0.6666669847440474  0.3333329859851446  0.3787521835782085  1.0000
  S   S1        1.0  0.3333329854322145  0.6666669831836742  0.6750796148478081  1.0000
  Ti  Ti1       1.0  0.3333329854322145  0.6666669831836742  0.44598765116291184  1.0000
  Ti  Ti2       1.0  0.6666669847440474  0.3333329859851446  0.5284080302669711  1.0000
