data_image0
_chemical_formula_structural       CN2O2PTi2
_chemical_formula_sum              "C1 N2 O2 P1 Ti2"
_cell_length_a       3.1402086701723873
_cell_length_b       3.1402086701724214
_cell_length_c       27.33533901543744
_cell_angle_alpha    90.0
_cell_angle_beta     90.0
_cell_angle_gamma    119.99999999999963

_space_group_name_H-M_alt    "P 1"
_space_group_IT_number       1

loop_
  _space_group_symop_operation_xyz
  'x, y, z'

loop_
  _atom_site_type_symbol
  _atom_site_label
  _atom_site_symmetry_multiplicity
  _atom_site_fract_x
  _atom_site_fract_y
  _atom_site_fract_z
  _atom_site_occupancy
  C   C1        1.0  0.6666669847440474  0.3333329859851447  0.372688735279445  1.0000
  N   N1        1.0  0.0  0.0  0.5068821603269108  1.0000
  N   N2        1.0  0.6666669847440474  0.3333329859851447  0.3292441332049079  1.0000
  O   O1        1.0  0.3333329854322145  0.6666669831836742  0.670755866795092  1.0000
  O   O2        1.0  0.6666669847440474  0.3333329859851447  0.42161352858489404  1.0000
  P   P1        1.0  0.3333329854322145  0.6666669831836742  0.6162088672741809  1.0000
  Ti  Ti1       1.0  0.3333329854322145  0.6666669831836742  0.46880670953618114  1.0000
  Ti  Ti2       1.0  0.6666669847440474  0.3333329859851447  0.5484246128378374  1.0000
