data_image0
_chemical_formula_structural       BrC2NOY2
_chemical_formula_sum              "Br1 C2 N1 O1 Y2"
_cell_length_a       3.7067323117857214
_cell_length_b       3.7067323118205247
_cell_length_c       26.50766114701449
_cell_angle_alpha    90.0
_cell_angle_beta     90.0
_cell_angle_gamma    119.99999999968942

_space_group_name_H-M_alt    "P 1"
_space_group_IT_number       1

loop_
  _space_group_symop_operation_xyz
  'x, y, z'

loop_
  _atom_site_type_symbol
  _atom_site_label
  _atom_site_symmetry_multiplicity
  _atom_site_fract_x
  _atom_site_fract_y
  _atom_site_fract_z
  _atom_site_occupancy
  Br  Br1       1.0  0.6666669847440474  0.3333329859851447  0.339524485019066  1.0000
  C   C1        1.0  0.0  0.0  0.46440000354925215  1.0000
  C   C2        1.0  0.3333329854322147  0.6666669831836745  0.6149390219231023  1.0000
  N   N1        1.0  0.3333329854322147  0.6666669831836745  0.5679088025238714  1.0000
  O   O1        1.0  0.3333329854322147  0.6666669831836745  0.660475514980934  1.0000
  Y   Y1        1.0  0.3333329854322147  0.6666669831836745  0.4134971258568846  1.0000
  Y   Y2        1.0  0.6666669847440474  0.3333329859851447  0.515563918541561  1.0000
