data_image0
_chemical_formula_structural       FNOPSc2
_chemical_formula_sum              "F1 N1 O1 P1 Sc2"
_cell_length_a       3.2977907945861498
_cell_length_b       3.297790794582212
_cell_length_c       24.98756729042865
_cell_angle_alpha    90.0
_cell_angle_beta     90.0
_cell_angle_gamma    120.0000000000395

_space_group_name_H-M_alt    "P 1"
_space_group_IT_number       1

loop_
  _space_group_symop_operation_xyz
  'x, y, z'

loop_
  _atom_site_type_symbol
  _atom_site_label
  _atom_site_symmetry_multiplicity
  _atom_site_fract_x
  _atom_site_fract_y
  _atom_site_fract_z
  _atom_site_occupancy
  F   F1        1.0  0.6666669847440474  0.3333329859851446  0.3601791200957526  1.0000
  N   N1        1.0  0.0  0.0  0.452152695791794  1.0000
  O   O1        1.0  0.3333329854322145  0.6666669831836742  0.6398208799042475  1.0000
  P   P1        1.0  0.3333329854322145  0.6666669831836742  0.5800399276932  1.0000
  Sc  Sc1       1.0  0.3333329854322145  0.6666669831836742  0.4059043527931135  1.0000
  Sc  Sc2       1.0  0.6666669847440474  0.3333329859851446  0.5020332161711265  1.0000
