data_image0
_chemical_formula_structural       C2HNTi2
_chemical_formula_sum              "C2 H1 N1 Ti2"
_cell_length_a       3.123451055565853
_cell_length_b       3.123451055573235
_cell_length_c       23.851520563955496
_cell_angle_alpha    90.0
_cell_angle_beta     90.0
_cell_angle_gamma    119.99999999992183

_space_group_name_H-M_alt    "P 1"
_space_group_IT_number       1

loop_
  _space_group_symop_operation_xyz
  'x, y, z'

loop_
  _atom_site_type_symbol
  _atom_site_label
  _atom_site_symmetry_multiplicity
  _atom_site_fract_x
  _atom_site_fract_y
  _atom_site_fract_z
  _atom_site_occupancy
  C   C1        1.0  0.0  0.0  0.4647925359791494  1.0000
  C   C2        1.0  0.3333329854322145  0.6666669831836742  0.5722413531052202  1.0000
  H   H1        1.0  0.6666669847440475  0.3333329859851446  0.377334433495231  1.0000
  N   N1        1.0  0.3333329854322145  0.6666669831836742  0.622665566504769  1.0000
  Ti  Ti1       1.0  0.3333329854322145  0.6666669831836742  0.4174460685264129  1.0000
  Ti  Ti2       1.0  0.6666669847440475  0.3333329859851446  0.51291806860515  1.0000
