data_image0
_chemical_formula_structural       HNOSc2
_chemical_formula_sum              "H1 N1 O1 Sc2"
_cell_length_a       3.258338164692054
_cell_length_b       3.258338164684776
_cell_length_c       22.42595346437746
_cell_angle_alpha    90.0
_cell_angle_beta     90.0
_cell_angle_gamma    120.00000000007391

_space_group_name_H-M_alt    "P 1"
_space_group_IT_number       1

loop_
  _space_group_symop_operation_xyz
  'x, y, z'

loop_
  _atom_site_type_symbol
  _atom_site_label
  _atom_site_symmetry_multiplicity
  _atom_site_fract_x
  _atom_site_fract_y
  _atom_site_fract_z
  _atom_site_occupancy
  H   H1        1.0  0.6666669847440474  0.3333329859851446  0.40132072931909285  1.0000
  N   N1        1.0  0.0  0.0  0.4951979715307568  1.0000
  O   O1        1.0  0.33333298543221446  0.6666669831836742  0.5986792706809071  1.0000
  Sc  Sc1       1.0  0.33333298543221446  0.6666669831836742  0.4494700264287607  1.0000
  Sc  Sc2       1.0  0.6666669847440474  0.3333329859851446  0.566415413764673  1.0000
