data_image0
_chemical_formula_structural       H2NOSc2
_chemical_formula_sum              "H2 N1 O1 Sc2"
_cell_length_a       3.2242805399286083
_cell_length_b       3.2242805399204095
_cell_length_c       23.68581836073711
_cell_angle_alpha    90.0
_cell_angle_beta     90.0
_cell_angle_gamma    120.00000000008411

_space_group_name_H-M_alt    "P 1"
_space_group_IT_number       1

loop_
  _space_group_symop_operation_xyz
  'x, y, z'

loop_
  _atom_site_type_symbol
  _atom_site_label
  _atom_site_symmetry_multiplicity
  _atom_site_fract_x
  _atom_site_fract_y
  _atom_site_fract_z
  _atom_site_occupancy
  H   H1        1.0  0.33333298543221457  0.6666669831836743  0.6200257950589165  1.0000
  H   H2        1.0  0.6666669847440472  0.3333329859851446  0.3799742049410835  1.0000
  N   N1        1.0  0.0  0.0  0.524865247117846  1.0000
  O   O1        1.0  0.6666669847440472  0.3333329859851446  0.4215643183523086  1.0000
  Sc  Sc1       1.0  0.33333298543221457  0.6666669831836743  0.4737413088598809  1.0000
  Sc  Sc2       1.0  0.6666669847440472  0.3333329859851446  0.5776828283897804  1.0000
