data_image0
_chemical_formula_structural       BrCClHf2O
_chemical_formula_sum              "Br1 C1 Cl1 Hf2 O1"
_cell_length_a       3.335347639119922
_cell_length_b       3.335347639111529
_cell_length_c       26.790660890594232
_cell_angle_alpha    90.0
_cell_angle_beta     90.0
_cell_angle_gamma    120.00000000008325

_space_group_name_H-M_alt    "P 1"
_space_group_IT_number       1

loop_
  _space_group_symop_operation_xyz
  'x, y, z'

loop_
  _atom_site_type_symbol
  _atom_site_label
  _atom_site_symmetry_multiplicity
  _atom_site_fract_x
  _atom_site_fract_y
  _atom_site_fract_z
  _atom_site_occupancy
  Br  Br1       1.0  0.6666669847440474  0.3333329859851446  0.33593796124528424  1.0000
  C   C1        1.0  0.0  0.0  0.4537264180681169  1.0000
  Cl  Cl1       1.0  0.3333329854322145  0.6666669831836742  0.6640620387547158  1.0000
  Hf  Hf1       1.0  0.3333329854322145  0.6666669831836742  0.4092791643186007  1.0000
  Hf  Hf2       1.0  0.6666669847440474  0.3333329859851446  0.506969077254702  1.0000
  O   O1        1.0  0.3333329854322145  0.6666669831836742  0.5386927264996071  1.0000
