data_image0
_chemical_formula_structural       CClHHf2
_chemical_formula_sum              "C1 Cl1 H1 Hf2"
_cell_length_a       3.3283345811168075
_cell_length_b       3.3283345811126344
_cell_length_c       23.20560287388537
_cell_angle_alpha    90.0
_cell_angle_beta     90.0
_cell_angle_gamma    120.0000000000415

_space_group_name_H-M_alt    "P 1"
_space_group_IT_number       1

loop_
  _space_group_symop_operation_xyz
  'x, y, z'

loop_
  _atom_site_type_symbol
  _atom_site_label
  _atom_site_symmetry_multiplicity
  _atom_site_fract_x
  _atom_site_fract_y
  _atom_site_fract_z
  _atom_site_occupancy
  C   C1        1.0  0.0  0.0  0.4837251683152918  1.0000
  Cl  Cl1       1.0  0.3333329854322146  0.6666669831836743  0.6121626294773738  1.0000
  H   H1        1.0  0.6666669847440473  0.33333298598514477  0.3878373705226262  1.0000
  Hf  Hf1       1.0  0.3333329854322146  0.6666669831836743  0.4303656290483899  1.0000
  Hf  Hf2       1.0  0.6666669847440473  0.33333298598514477  0.5344316847350056  1.0000
