data_image0
_chemical_formula_structural       C2HNOSSc2
_chemical_formula_sum              "C2 H1 N1 O1 S1 Sc2"
_cell_length_a       3.449013949814747
_cell_length_b       3.4490139498082186
_cell_length_c       27.153341556817875
_cell_angle_alpha    90.0
_cell_angle_beta     90.0
_cell_angle_gamma    120.00000000006261

_space_group_name_H-M_alt    "P 1"
_space_group_IT_number       1

loop_
  _space_group_symop_operation_xyz
  'x, y, z'

loop_
  _atom_site_type_symbol
  _atom_site_label
  _atom_site_symmetry_multiplicity
  _atom_site_fract_x
  _atom_site_fract_y
  _atom_site_fract_z
  _atom_site_occupancy
  C   C1        1.0  0.0  0.0  0.4576149924880359  1.0000
  C   C2        1.0  0.3333329854322145  0.6666669831836742  0.6247135157419694  1.0000
  H   H1        1.0  0.6666669847440475  0.3333329859851446  0.33145091852388275  1.0000
  N   N1        1.0  0.3333329854322145  0.6666669831836742  0.6685490814761172  1.0000
  O   O1        1.0  0.6666669847440475  0.3333329859851446  0.3677426968404324  1.0000
  S   S1        1.0  0.3333329854322145  0.6666669831836742  0.5632113207068671  1.0000
  Sc  Sc1       1.0  0.3333329854322145  0.6666669831836742  0.4113596158807358  1.0000
  Sc  Sc2       1.0  0.6666669847440475  0.3333329859851446  0.5021383480096728  1.0000
