data_image0
_chemical_formula_structural       CClO2PTi2
_chemical_formula_sum              "C1 Cl1 O2 P1 Ti2"
_cell_length_a       3.0865319232631423
_cell_length_b       3.0865319232642885
_cell_length_c       28.84390368287754
_cell_angle_alpha    90.0
_cell_angle_beta     90.0
_cell_angle_gamma    119.99999999998772

_space_group_name_H-M_alt    "P 1"
_space_group_IT_number       1

loop_
  _space_group_symop_operation_xyz
  'x, y, z'

loop_
  _atom_site_type_symbol
  _atom_site_label
  _atom_site_symmetry_multiplicity
  _atom_site_fract_x
  _atom_site_fract_y
  _atom_site_fract_z
  _atom_site_occupancy
  C   C1        1.0  0.0  0.0  0.4677326752823496  1.0000
  Cl  Cl1       1.0  0.3333329854322145  0.6666669831836742  0.6879756603353718  1.0000
  O   O1        1.0  0.3333329854322145  0.6666669831836742  0.5452303133042463  1.0000
  O   O2        1.0  0.6666669847440473  0.3333329859851446  0.3120243396646282  1.0000
  P   P1        1.0  0.6666669847440473  0.3333329859851446  0.36370078625259056  1.0000
  Ti  Ti1       1.0  0.3333329854322145  0.6666669831836742  0.4287168063960537  1.0000
  Ti  Ti2       1.0  0.6666669847440473  0.3333329859851446  0.5148367417081885  1.0000
