data_image0
_chemical_formula_structural       CClN2OSTi2
_chemical_formula_sum              "C1 Cl1 N2 O1 S1 Ti2"
_cell_length_a       3.1039439928546257
_cell_length_b       3.103943992854894
_cell_length_c       30.95079113977137
_cell_angle_alpha    90.0
_cell_angle_beta     90.0
_cell_angle_gamma    119.99999999999714

_space_group_name_H-M_alt    "P 1"
_space_group_IT_number       1

loop_
  _space_group_symop_operation_xyz
  'x, y, z'

loop_
  _atom_site_type_symbol
  _atom_site_label
  _atom_site_symmetry_multiplicity
  _atom_site_fract_x
  _atom_site_fract_y
  _atom_site_fract_z
  _atom_site_occupancy
  C   C1        1.0  0.6666669847440474  0.3333329859851446  0.3407472904491982  1.0000
  Cl  Cl1       1.0  0.33333298543221457  0.6666669831836742  0.7092158336322745  1.0000
  N   N1        1.0  0.0  0.0  0.4597014792132863  1.0000
  N   N2        1.0  0.6666669847440474  0.3333329859851446  0.38160740682587174  1.0000
  O   O1        1.0  0.33333298543221457  0.6666669831836742  0.5284493706881905  1.0000
  S   S1        1.0  0.6666669847440474  0.3333329859851446  0.2907841663677255  1.0000
  Ti  Ti1       1.0  0.33333298543221457  0.6666669831836742  0.4215860061192673  1.0000
  Ti  Ti2       1.0  0.6666669847440474  0.3333329859851446  0.5001181442186966  1.0000
