data_image0
_chemical_formula_structural       C2FNOY2
_chemical_formula_sum              "C2 F1 N1 O1 Y2"
_cell_length_a       3.6280898521588654
_cell_length_b       3.6280898521578524
_cell_length_c       25.68602380474008
_cell_angle_alpha    90.0
_cell_angle_beta     90.0
_cell_angle_gamma    120.00000000000922

_space_group_name_H-M_alt    "P 1"
_space_group_IT_number       1

loop_
  _space_group_symop_operation_xyz
  'x, y, z'

loop_
  _atom_site_type_symbol
  _atom_site_label
  _atom_site_symmetry_multiplicity
  _atom_site_fract_x
  _atom_site_fract_y
  _atom_site_fract_z
  _atom_site_occupancy
  C   C1        1.0  0.0  0.0  0.5515411279863122  1.0000
  C   C2        1.0  0.6666669847440474  0.3333329859851446  0.39668079714334054  1.0000
  F   F1        1.0  0.33333298543221457  0.6666669831836742  0.6496149007562957  1.0000
  N   N1        1.0  0.6666669847440474  0.3333329859851446  0.35038509924370415  1.0000
  O   O1        1.0  0.6666669847440474  0.3333329859851446  0.44857431005046505  1.0000
  Y   Y1        1.0  0.33333298543221457  0.6666669831836742  0.4986645621318642  1.0000
  Y   Y2        1.0  0.6666669847440474  0.3333329859851446  0.6052468678932916  1.0000
