data_image0
_chemical_formula_structural       C2N3OSY2
_chemical_formula_sum              "C2 N3 O1 S1 Y2"
_cell_length_a       3.5656434783497972
_cell_length_b       3.5656434783314737
_cell_length_c       28.722760202036948
_cell_angle_alpha    90.0
_cell_angle_beta     90.0
_cell_angle_gamma    120.00000000017

_space_group_name_H-M_alt    "P 1"
_space_group_IT_number       1

loop_
  _space_group_symop_operation_xyz
  'x, y, z'

loop_
  _atom_site_type_symbol
  _atom_site_label
  _atom_site_symmetry_multiplicity
  _atom_site_fract_x
  _atom_site_fract_y
  _atom_site_fract_z
  _atom_site_occupancy
  C   C1        1.0  0.3333329854322145  0.6666669831836742  0.6446688009816542  1.0000
  C   C2        1.0  0.6666669847440472  0.3333329859851446  0.36755340179763424  1.0000
  N   N1        1.0  0.0  0.0  0.5061108070321029  1.0000
  N   N2        1.0  0.3333329854322145  0.6666669831836742  0.601311570705267  1.0000
  N   N3        1.0  0.6666669847440472  0.3333329859851446  0.41106041443648333  1.0000
  O   O1        1.0  0.3333329854322145  0.6666669831836742  0.686659640762459  1.0000
  S   S1        1.0  0.6666669847440472  0.3333329859851446  0.31334035923754094  1.0000
  Y   Y1        1.0  0.3333329854322145  0.6666669831836742  0.45908043599885595  1.0000
  Y   Y2        1.0  0.6666669847440472  0.3333329859851446  0.5514625412069308  1.0000
