data_image0
_chemical_formula_structural       Br2NSc2
_chemical_formula_sum              "Br2 N1 Sc2"
_cell_length_a       3.454623302128392
_cell_length_b       3.454623302122519
_cell_length_c       24.03701180698544
_cell_angle_alpha    90.0
_cell_angle_beta     90.0
_cell_angle_gamma    120.00000000005625

_space_group_name_H-M_alt    "P 1"
_space_group_IT_number       1

loop_
  _space_group_symop_operation_xyz
  'x, y, z'

loop_
  _atom_site_type_symbol
  _atom_site_label
  _atom_site_symmetry_multiplicity
  _atom_site_fract_x
  _atom_site_fract_y
  _atom_site_fract_z
  _atom_site_occupancy
  Br  Br1       1.0  0.33333298543221457  0.6666669831836742  0.6255774190124375  1.0000
  Br  Br2       1.0  0.6666669847440474  0.3333329859851446  0.3744225809875624  1.0000
  N   N1        1.0  0.0  0.0  0.5000000325642835  1.0000
  Sc  Sc1       1.0  0.33333298543221457  0.6666669831836742  0.4513333248840884  1.0000
  Sc  Sc2       1.0  0.6666669847440474  0.3333329859851446  0.5486666746298687  1.0000
