data_image0
_chemical_formula_structural       C2N3OSc2
_chemical_formula_sum              "C2 N3 O1 Sc2"
_cell_length_a       3.304943299087174
_cell_length_b       3.3049432990877463
_cell_length_c       26.854225902595488
_cell_angle_alpha    90.0
_cell_angle_beta     90.0
_cell_angle_gamma    119.99999999999427

_space_group_name_H-M_alt    "P 1"
_space_group_IT_number       1

loop_
  _space_group_symop_operation_xyz
  'x, y, z'

loop_
  _atom_site_type_symbol
  _atom_site_label
  _atom_site_symmetry_multiplicity
  _atom_site_fract_x
  _atom_site_fract_y
  _atom_site_fract_z
  _atom_site_occupancy
  C   C1        1.0  0.33333298543221446  0.6666669831836742  0.6201648025494793  1.0000
  C   C2        1.0  0.6666669847440475  0.3333329859851446  0.37996717001960467  1.0000
  N   N1        1.0  0.0  0.0  0.5205655979560688  1.0000
  N   N2        1.0  0.33333298543221446  0.6666669831836742  0.6648572171603673  1.0000
  N   N3        1.0  0.6666669847440475  0.3333329859851446  0.426369591816935  1.0000
  O   O1        1.0  0.6666669847440475  0.3333329859851446  0.33514278283963284  1.0000
  Sc  Sc1       1.0  0.33333298543221446  0.6666669831836742  0.4762542081494557  1.0000
  Sc  Sc2       1.0  0.6666669847440475  0.3333329859851446  0.5668245340709126  1.0000
