data_image0
_chemical_formula_structural       CHN2OZr2
_chemical_formula_sum              "C1 H1 N2 O1 Zr2"
_cell_length_a       3.362995520824457
_cell_length_b       3.362995520817898
_cell_length_c       25.380182640588686
_cell_angle_alpha    90.0
_cell_angle_beta     90.0
_cell_angle_gamma    120.00000000006452

_space_group_name_H-M_alt    "P 1"
_space_group_IT_number       1

loop_
  _space_group_symop_operation_xyz
  'x, y, z'

loop_
  _atom_site_type_symbol
  _atom_site_label
  _atom_site_symmetry_multiplicity
  _atom_site_fract_x
  _atom_site_fract_y
  _atom_site_fract_z
  _atom_site_occupancy
  C   C1        1.0  0.3333329854322145  0.6666669831836742  0.5979379201010936  1.0000
  H   H1        1.0  0.6666669847440474  0.3333329859851446  0.3546073772379775  1.0000
  N   N1        1.0  0.0  0.0  0.49139417391097845  1.0000
  N   N2        1.0  0.3333329854322145  0.6666669831836742  0.6453926227620225  1.0000
  O   O1        1.0  0.6666669847440474  0.3333329859851446  0.39353070600671747  1.0000
  Zr  Zr1       1.0  0.3333329854322145  0.6666669831836742  0.4460539775225785  1.0000
  Zr  Zr2       1.0  0.6666669847440474  0.3333329859851446  0.5386892337705657  1.0000
