data_image0
_chemical_formula_structural       ClFNOZr2
_chemical_formula_sum              "Cl1 F1 N1 O1 Zr2"
_cell_length_a       3.2970861745527995
_cell_length_b       3.297086174553099
_cell_length_c       26.216707976503958
_cell_angle_alpha    90.0
_cell_angle_beta     90.0
_cell_angle_gamma    119.99999999999702

_space_group_name_H-M_alt    "P 1"
_space_group_IT_number       1

loop_
  _space_group_symop_operation_xyz
  'x, y, z'

loop_
  _atom_site_type_symbol
  _atom_site_label
  _atom_site_symmetry_multiplicity
  _atom_site_fract_x
  _atom_site_fract_y
  _atom_site_fract_z
  _atom_site_occupancy
  Cl  Cl1       1.0  0.3333329854322145  0.6666669831836742  0.6567074703633264  1.0000
  F   F1        1.0  0.6666669847440473  0.3333329859851446  0.34329252963667356  1.0000
  N   N1        1.0  0.0  0.0  0.4420143848710804  1.0000
  O   O1        1.0  0.3333329854322145  0.6666669831836742  0.5286049764770928  1.0000
  Zr  Zr1       1.0  0.3333329854322145  0.6666669831836742  0.3940867810266386  1.0000
  Zr  Zr2       1.0  0.6666669847440473  0.3333329859851446  0.4934458026855691  1.0000
