data_image0
_chemical_formula_structural       H2NZr2
_chemical_formula_sum              "H2 N1 Zr2"
_cell_length_a       3.2619281599201964
_cell_length_b       3.261928159915068
_cell_length_c       22.5739952602482
_cell_angle_alpha    90.0
_cell_angle_beta     90.0
_cell_angle_gamma    120.000000000052

_space_group_name_H-M_alt    "P 1"
_space_group_IT_number       1

loop_
  _space_group_symop_operation_xyz
  'x, y, z'

loop_
  _atom_site_type_symbol
  _atom_site_label
  _atom_site_symmetry_multiplicity
  _atom_site_fract_x
  _atom_site_fract_y
  _atom_site_fract_z
  _atom_site_occupancy
  H   H1        1.0  0.33333298543221446  0.6666669831836742  0.6013111593122109  1.0000
  H   H2        1.0  0.6666669847440473  0.3333329859851447  0.3986888406877891  1.0000
  N   N1        1.0  0.0  0.0  0.5000000388925294  1.0000
  Zr  Zr1       1.0  0.33333298543221446  0.6666669831836742  0.44462238564343765  1.0000
  Zr  Zr2       1.0  0.6666669847440473  0.3333329859851447  0.5553776137760664  1.0000
