data_image0
_chemical_formula_structural       CN3OSY2
_chemical_formula_sum              "C1 N3 O1 S1 Y2"
_cell_length_a       3.7248054757920377
_cell_length_b       3.7248054758134064
_cell_length_c       27.524910597988708
_cell_angle_alpha    90.0
_cell_angle_beta     90.0
_cell_angle_gamma    119.99999999981023

_space_group_name_H-M_alt    "P 1"
_space_group_IT_number       1

loop_
  _space_group_symop_operation_xyz
  'x, y, z'

loop_
  _atom_site_type_symbol
  _atom_site_label
  _atom_site_symmetry_multiplicity
  _atom_site_fract_x
  _atom_site_fract_y
  _atom_site_fract_z
  _atom_site_occupancy
  C   C1        1.0  0.6666669847440475  0.3333329859851446  0.3702135088526801  1.0000
  N   N1        1.0  0.0  0.0  0.534238225533252  1.0000
  N   N2        1.0  0.3333329854322145  0.6666669831836742  0.6236573748691504  1.0000
  N   N3        1.0  0.6666669847440475  0.3333329859851446  0.3269765388686728  1.0000
  O   O1        1.0  0.3333329854322145  0.6666669831836742  0.6730234611313272  1.0000
  S   S1        1.0  0.6666669847440475  0.3333329859851446  0.4309972508145015  1.0000
  Y   Y1        1.0  0.3333329854322145  0.6666669831836742  0.4954698093608746  1.0000
  Y   Y2        1.0  0.6666669847440475  0.3333329859851446  0.5972073921965536  1.0000
