data_image0
_chemical_formula_structural       Cl2NO2Y2
_chemical_formula_sum              "Cl2 N1 O2 Y2"
_cell_length_a       3.6710132950719467
_cell_length_b       3.671013295062853
_cell_length_c       26.459618390849172
_cell_angle_alpha    90.0
_cell_angle_beta     90.0
_cell_angle_gamma    120.00000000008195

_space_group_name_H-M_alt    "P 1"
_space_group_IT_number       1

loop_
  _space_group_symop_operation_xyz
  'x, y, z'

loop_
  _atom_site_type_symbol
  _atom_site_label
  _atom_site_symmetry_multiplicity
  _atom_site_fract_x
  _atom_site_fract_y
  _atom_site_fract_z
  _atom_site_occupancy
  Cl  Cl1       1.0  0.33333298543221457  0.6666669831836742  0.6598590400263455  1.0000
  Cl  Cl2       1.0  0.6666669847440474  0.3333329859851445  0.34014095997365457  1.0000
  N   N1        1.0  0.0  0.0  0.5000000261979898  1.0000
  O   O1        1.0  0.33333298543221457  0.6666669831836742  0.5831561775292213  1.0000
  O   O2        1.0  0.6666669847440474  0.3333329859851445  0.4168438224707859  1.0000
  Y   Y1        1.0  0.33333298543221457  0.6666669831836742  0.44672654905025894  1.0000
  Y   Y2        1.0  0.6666669847440474  0.3333329859851445  0.5532734505587266  1.0000
