data_image0
_chemical_formula_structural       ClHHf2NO2
_chemical_formula_sum              "Cl1 H1 Hf2 N1 O2"
_cell_length_a       3.197828934078505
_cell_length_b       3.197828934068958
_cell_length_c       27.35224247397568
_cell_angle_alpha    90.0
_cell_angle_beta     90.0
_cell_angle_gamma    120.0000000000988

_space_group_name_H-M_alt    "P 1"
_space_group_IT_number       1

loop_
  _space_group_symop_operation_xyz
  'x, y, z'

loop_
  _atom_site_type_symbol
  _atom_site_label
  _atom_site_symmetry_multiplicity
  _atom_site_fract_x
  _atom_site_fract_y
  _atom_site_fract_z
  _atom_site_occupancy
  Cl  Cl1       1.0  0.3333329854322145  0.6666669831836742  0.670959336933231  1.0000
  H   H1        1.0  0.6666669847440473  0.3333329859851446  0.329040663066769  1.0000
  Hf  Hf1       1.0  0.3333329854322145  0.6666669831836742  0.41499883119442593  1.0000
  Hf  Hf2       1.0  0.6666669847440473  0.3333329859851446  0.5107313574875504  1.0000
  N   N1        1.0  0.0  0.0  0.46273928495258004  1.0000
  O   O1        1.0  0.3333329854322145  0.6666669831836742  0.5452715123080873  1.0000
  O   O2        1.0  0.6666669847440473  0.3333329859851446  0.3656703038339721  1.0000
