data_image0
_chemical_formula_structural       Cl2NY2
_chemical_formula_sum              "Cl2 N1 Y2"
_cell_length_a       3.6191222896529123
_cell_length_b       3.619122289665306
_cell_length_c       24.169740224686034
_cell_angle_alpha    90.0
_cell_angle_beta     90.0
_cell_angle_gamma    119.99999999988671

_space_group_name_H-M_alt    "P 1"
_space_group_IT_number       1

loop_
  _space_group_symop_operation_xyz
  'x, y, z'

loop_
  _atom_site_type_symbol
  _atom_site_label
  _atom_site_symmetry_multiplicity
  _atom_site_fract_x
  _atom_site_fract_y
  _atom_site_fract_z
  _atom_site_occupancy
  Cl  Cl1       1.0  0.3333329854322145  0.6666669831836742  0.6276335650969161  1.0000
  Cl  Cl2       1.0  0.6666669847440472  0.3333329859851445  0.37236643490308385  1.0000
  N   N1        1.0  0.0  0.0  0.5000000295083483  1.0000
  Y   Y1        1.0  0.3333329854322145  0.6666669831836742  0.4460163345759919  1.0000
  Y   Y2        1.0  0.6666669847440472  0.3333329859851445  0.553983664983577  1.0000
