data_image0
_chemical_formula_structural       CHf2NO2P
_chemical_formula_sum              "C1 Hf2 N1 O2 P1"
_cell_length_a       3.312596571608782
_cell_length_b       3.312596571601195
_cell_length_c       26.475860022481662
_cell_angle_alpha    90.0
_cell_angle_beta     90.0
_cell_angle_gamma    120.00000000007576

_space_group_name_H-M_alt    "P 1"
_space_group_IT_number       1

loop_
  _space_group_symop_operation_xyz
  'x, y, z'

loop_
  _atom_site_type_symbol
  _atom_site_label
  _atom_site_symmetry_multiplicity
  _atom_site_fract_x
  _atom_site_fract_y
  _atom_site_fract_z
  _atom_site_occupancy
  C   C1        1.0  0.0  0.0  0.5155474152246391  1.0000
  Hf  Hf1       1.0  0.3333329854322145  0.6666669831836742  0.4696687018257499  1.0000
  Hf  Hf2       1.0  0.6666669847440474  0.3333329859851446  0.5663415161849601  1.0000
  N   N1        1.0  0.3333329854322145  0.6666669831836742  0.6100334217667691  1.0000
  O   O1        1.0  0.3333329854322145  0.6666669831836742  0.6600676996948257  1.0000
  O   O2        1.0  0.6666669847440474  0.3333329859851446  0.3399323003051745  1.0000
  P   P1        1.0  0.6666669847440474  0.3333329859851446  0.3963729006358888  1.0000
