data_image0
_chemical_formula_structural       CClOPY2
_chemical_formula_sum              "C1 Cl1 O1 P1 Y2"
_cell_length_a       3.6716359228692594
_cell_length_b       3.6716359229159234
_cell_length_c       26.066017638607278
_cell_angle_alpha    90.0
_cell_angle_beta     90.0
_cell_angle_gamma    119.99999999957957

_space_group_name_H-M_alt    "P 1"
_space_group_IT_number       1

loop_
  _space_group_symop_operation_xyz
  'x, y, z'

loop_
  _atom_site_type_symbol
  _atom_site_label
  _atom_site_symmetry_multiplicity
  _atom_site_fract_x
  _atom_site_fract_y
  _atom_site_fract_z
  _atom_site_occupancy
  C   C1        1.0  0.0  0.0  0.46526528035850845  1.0000
  Cl  Cl1       1.0  0.6666669847440474  0.3333329859851446  0.34527713917717107  1.0000
  O   O1        1.0  0.33333298543221435  0.6666669831836742  0.6547228608228292  1.0000
  P   P1        1.0  0.33333298543221435  0.6666669831836742  0.5972488475157409  1.0000
  Y   Y1        1.0  0.33333298543221435  0.6666669831836742  0.4129189636089357  1.0000
  Y   Y2        1.0  0.6666669847440474  0.3333329859851446  0.5162789150961207  1.0000
