data_image0
_chemical_formula_structural       C2N3OSTi2
_chemical_formula_sum              "C2 N3 O1 S1 Ti2"
_cell_length_a       3.271616025979592
_cell_length_b       3.2716160259863662
_cell_length_c       28.251511587762128
_cell_angle_alpha    90.0
_cell_angle_beta     90.0
_cell_angle_gamma    119.99999999993152

_space_group_name_H-M_alt    "P 1"
_space_group_IT_number       1

loop_
  _space_group_symop_operation_xyz
  'x, y, z'

loop_
  _atom_site_type_symbol
  _atom_site_label
  _atom_site_symmetry_multiplicity
  _atom_site_fract_x
  _atom_site_fract_y
  _atom_site_fract_z
  _atom_site_occupancy
  C   C1        1.0  0.33333298543221446  0.6666669831836742  0.6388149515996753  1.0000
  C   C2        1.0  0.6666669847440473  0.3333329859851446  0.3607266233692934  1.0000
  N   N1        1.0  0.0  0.0  0.5132924313593491  1.0000
  N   N2        1.0  0.33333298543221446  0.6666669831836742  0.594655470761748  1.0000
  N   N3        1.0  0.6666669847440473  0.3333329859851446  0.3185670250613628  1.0000
  O   O1        1.0  0.33333298543221446  0.6666669831836742  0.6814329749386372  1.0000
  S   S1        1.0  0.6666669847440473  0.3333329859851446  0.4200345019130057  1.0000
  Ti  Ti1       1.0  0.33333298543221446  0.6666669831836742  0.47540071539258866  1.0000
  Ti  Ti2       1.0  0.6666669847440473  0.3333329859851446  0.547978474621184  1.0000
