data_image0
_chemical_formula_structural       CClN2OSSc2
_chemical_formula_sum              "C1 Cl1 N2 O1 S1 Sc2"
_cell_length_a       3.320845666865631
_cell_length_b       3.320845666865786
_cell_length_c       29.281535030148486
_cell_angle_alpha    90.0
_cell_angle_beta     90.0
_cell_angle_gamma    119.99999999999847

_space_group_name_H-M_alt    "P 1"
_space_group_IT_number       1

loop_
  _space_group_symop_operation_xyz
  'x, y, z'

loop_
  _atom_site_type_symbol
  _atom_site_label
  _atom_site_symmetry_multiplicity
  _atom_site_fract_x
  _atom_site_fract_y
  _atom_site_fract_z
  _atom_site_occupancy
  C   C1        1.0  0.6666669847440475  0.3333329859851446  0.3605920895850537  1.0000
  Cl  Cl1       1.0  0.3333329854322145  0.6666669831836742  0.6926390644912046  1.0000
  N   N1        1.0  0.0  0.0  0.48421100732168976  1.0000
  N   N2        1.0  0.6666669847440475  0.3333329859851446  0.4029590463271198  1.0000
  O   O1        1.0  0.3333329854322145  0.6666669831836742  0.5616671706723407  1.0000
  S   S1        1.0  0.6666669847440475  0.3333329859851446  0.30736093550879523  1.0000
  Sc  Sc1       1.0  0.3333329854322145  0.6666669831836742  0.4505817299780309  1.0000
  Sc  Sc2       1.0  0.6666669847440475  0.3333329859851446  0.5399218405640381  1.0000
