data_image0
_chemical_formula_structural       C2ClNSTi2
_chemical_formula_sum              "C2 Cl1 N1 S1 Ti2"
_cell_length_a       3.2359512893867133
_cell_length_b       3.2359512893868576
_cell_length_c       25.97986731694431
_cell_angle_alpha    90.0
_cell_angle_beta     90.0
_cell_angle_gamma    119.99999999999852

_space_group_name_H-M_alt    "P 1"
_space_group_IT_number       1

loop_
  _space_group_symop_operation_xyz
  'x, y, z'

loop_
  _atom_site_type_symbol
  _atom_site_label
  _atom_site_symmetry_multiplicity
  _atom_site_fract_x
  _atom_site_fract_y
  _atom_site_fract_z
  _atom_site_occupancy
  C   C1        1.0  0.0  0.0  0.4529849726680815  1.0000
  C   C2        1.0  0.3333329854322145  0.6666669831836742  0.5938515828559386  1.0000
  Cl  Cl1       1.0  0.6666669847440474  0.3333329859851446  0.3464220925458737  1.0000
  N   N1        1.0  0.3333329854322145  0.6666669831836742  0.545651697653346  1.0000
  S   S1        1.0  0.3333329854322145  0.6666669831836742  0.6535779074541264  1.0000
  Ti  Ti1       1.0  0.3333329854322145  0.6666669831836742  0.4112850321679806  1.0000
  Ti  Ti2       1.0  0.6666669847440474  0.3333329859851446  0.4964274319906727  1.0000
