data_image0
_chemical_formula_structural       C2N2OSZr2
_chemical_formula_sum              "C2 N2 O1 S1 Zr2"
_cell_length_a       3.4385471403418992
_cell_length_b       3.438547140330967
_cell_length_c       27.104693627931713
_cell_angle_alpha    90.0
_cell_angle_beta     90.0
_cell_angle_gamma    120.00000000010517

_space_group_name_H-M_alt    "P 1"
_space_group_IT_number       1

loop_
  _space_group_symop_operation_xyz
  'x, y, z'

loop_
  _atom_site_type_symbol
  _atom_site_label
  _atom_site_symmetry_multiplicity
  _atom_site_fract_x
  _atom_site_fract_y
  _atom_site_fract_z
  _atom_site_occupancy
  C   C1        1.0  0.0  0.0  0.5294697552196334  1.0000
  C   C2        1.0  0.6666669847440474  0.3333329859851446  0.3893878264271511  1.0000
  N   N1        1.0  0.3333329854322145  0.6666669831836742  0.6189251072277908  1.0000
  N   N2        1.0  0.6666669847440474  0.3333329859851446  0.43561606308405426  1.0000
  O   O1        1.0  0.3333329854322145  0.6666669831836742  0.667954188173321  1.0000
  S   S1        1.0  0.6666669847440474  0.3333329859851446  0.332045811826679  1.0000
  Zr  Zr1       1.0  0.3333329854322145  0.6666669831836742  0.4870944162497244  1.0000
  Zr  Zr2       1.0  0.6666669847440474  0.3333329859851446  0.5829669901729082  1.0000
