data_image0
_chemical_formula_structural       CFHLa2
_chemical_formula_sum              "C1 F1 H1 La2"
_cell_length_a       3.7948161421613165
_cell_length_b       3.7948161421630973
_cell_length_c       24.2051149691413
_cell_angle_alpha    89.99999999999999
_cell_angle_beta     90.0
_cell_angle_gamma    119.99999999998444

_space_group_name_H-M_alt    "P 1"
_space_group_IT_number       1

loop_
  _space_group_symop_operation_xyz
  'x, y, z'

loop_
  _atom_site_type_symbol
  _atom_site_label
  _atom_site_symmetry_multiplicity
  _atom_site_fract_x
  _atom_site_fract_y
  _atom_site_fract_z
  _atom_site_occupancy
  C   C1        1.0  3.238847518265264e-33  7.084989006666605e-33  0.4982360753059044  1.0000
  F   F1        1.0  0.3333329854322145  0.6666669831836742  0.6088313104482717  1.0000
  H   H1        1.0  0.0  0.0  0.3859914474687769  1.0000
  La  La1       1.0  0.3333329854322145  0.6666669831836742  0.43426949164499884  1.0000
  La  La2       1.0  0.6666669847440475  0.33333298598514466  0.5594604994312594  1.0000
