data_image0
_chemical_formula_structural       C2NO2Zr2
_chemical_formula_sum              "C2 N1 O2 Zr2"
_cell_length_a       3.3371645152086735
_cell_length_b       3.337164515198272
_cell_length_c       25.532590651241193
_cell_angle_alpha    90.0
_cell_angle_beta     90.0
_cell_angle_gamma    120.00000000010311

_space_group_name_H-M_alt    "P 1"
_space_group_IT_number       1

loop_
  _space_group_symop_operation_xyz
  'x, y, z'

loop_
  _atom_site_type_symbol
  _atom_site_label
  _atom_site_symmetry_multiplicity
  _atom_site_fract_x
  _atom_site_fract_y
  _atom_site_fract_z
  _atom_site_occupancy
  C   C1        1.0  0.0  0.0  0.5541735878514611  1.0000
  C   C2        1.0  0.6666669847440473  0.3333329859851446  0.3990163894227188  1.0000
  N   N1        1.0  0.6666669847440473  0.3333329859851446  0.3524906705682249  1.0000
  O   O1        1.0  0.33333298543221446  0.6666669831836742  0.6475093294317751  1.0000
  O   O2        1.0  0.6666669847440473  0.3333329859851446  0.4513430241913349  1.0000
  Zr  Zr1       1.0  0.33333298543221446  0.6666669831836742  0.5059506597020188  1.0000
  Zr  Zr2       1.0  0.6666669847440473  0.3333329859851446  0.6102998439853128  1.0000
