data_image0
_chemical_formula_structural       BrCN2OSc2
_chemical_formula_sum              "Br1 C1 N2 O1 Sc2"
_cell_length_a       3.3777957482135235
_cell_length_b       3.3777957482126832
_cell_length_c       25.996532771210518
_cell_angle_alpha    90.0
_cell_angle_beta     90.0
_cell_angle_gamma    120.00000000000823

_space_group_name_H-M_alt    "P 1"
_space_group_IT_number       1

loop_
  _space_group_symop_operation_xyz
  'x, y, z'

loop_
  _atom_site_type_symbol
  _atom_site_label
  _atom_site_symmetry_multiplicity
  _atom_site_fract_x
  _atom_site_fract_y
  _atom_site_fract_z
  _atom_site_occupancy
  Br  Br1       1.0  0.3333329854322145  0.6666669831836742  0.6537999863594531  1.0000
  C   C1        1.0  0.6666669847440474  0.3333329859851445  0.3919029054577988  1.0000
  N   N1        1.0  0.0  0.0  0.5355631918443569  1.0000
  N   N2        1.0  0.6666669847440474  0.3333329859851445  0.3462000136405466  1.0000
  O   O1        1.0  0.6666669847440474  0.3333329859851445  0.4433164447788985  1.0000
  Sc  Sc1       1.0  0.3333329854322145  0.6666669831836742  0.49063884215871884  1.0000
  Sc  Sc2       1.0  0.6666669847440474  0.3333329859851445  0.5820167378089176  1.0000
