data_image0
_chemical_formula_structural       ClNO2Y2
_chemical_formula_sum              "Cl1 N1 O2 Y2"
_cell_length_a       3.583416780817295
_cell_length_b       3.583416780819552
_cell_length_c       24.531356466130564
_cell_angle_alpha    90.0
_cell_angle_beta     90.0
_cell_angle_gamma    119.99999999997918

_space_group_name_H-M_alt    "P 1"
_space_group_IT_number       1

loop_
  _space_group_symop_operation_xyz
  'x, y, z'

loop_
  _atom_site_type_symbol
  _atom_site_label
  _atom_site_symmetry_multiplicity
  _atom_site_fract_x
  _atom_site_fract_y
  _atom_site_fract_z
  _atom_site_occupancy
  Cl  Cl1       1.0  0.3333329854322145  0.6666669831836742  0.6331226113637078  1.0000
  N   N1        1.0  0.0  0.0  0.4660191799422563  1.0000
  O   O1        1.0  0.3333329854322145  0.6666669831836742  0.5629713502648379  1.0000
  O   O2        1.0  0.6666669847440474  0.3333329859851445  0.3668773886362922  1.0000
  Y   Y1        1.0  0.3333329854322145  0.6666669831836742  0.3954904325591597  1.0000
  Y   Y2        1.0  0.6666669847440474  0.3333329859851445  0.5114609321198018  1.0000
