data_image0
_chemical_formula_structural       C2Hf2N3OS
_chemical_formula_sum              "C2 Hf2 N3 O1 S1"
_cell_length_a       3.411463188481812
_cell_length_b       3.4114631884785336
_cell_length_c       28.644813132408846
_cell_angle_alpha    90.0
_cell_angle_beta     90.0
_cell_angle_gamma    120.00000000003179

_space_group_name_H-M_alt    "P 1"
_space_group_IT_number       1

loop_
  _space_group_symop_operation_xyz
  'x, y, z'

loop_
  _atom_site_type_symbol
  _atom_site_label
  _atom_site_symmetry_multiplicity
  _atom_site_fract_x
  _atom_site_fract_y
  _atom_site_fract_z
  _atom_site_occupancy
  C   C1        1.0  0.3333329854322145  0.6666669831836743  0.6442505845629886  1.0000
  C   C2        1.0  0.6666669847440475  0.3333329859851446  0.3556590092204213  1.0000
  Hf  Hf1       1.0  0.3333329854322145  0.6666669831836743  0.4486646055700494  1.0000
  Hf  Hf2       1.0  0.6666669847440475  0.3333329859851446  0.5288569214286217  1.0000
  N   N1        1.0  0.0  0.0  0.48302166852390566  1.0000
  N   N2        1.0  0.3333329854322145  0.6666669831836743  0.6858069920582804  1.0000
  N   N3        1.0  0.6666669847440475  0.3333329859851446  0.31419300794171934  1.0000
  O   O1        1.0  0.6666669847440475  0.3333329859851446  0.4024747596936615  1.0000
  S   S1        1.0  0.3333329854322145  0.6666669831836743  0.5850055610550334  1.0000
