data_image0
_chemical_formula_structural       CN2OPSTi2
_chemical_formula_sum              "C1 N2 O1 P1 S1 Ti2"
_cell_length_a       3.2231522822443215
_cell_length_b       3.2231522822486784
_cell_length_c       27.934793040225326
_cell_angle_alpha    90.0
_cell_angle_beta     90.0
_cell_angle_gamma    119.99999999995528

_space_group_name_H-M_alt    "P 1"
_space_group_IT_number       1

loop_
  _space_group_symop_operation_xyz
  'x, y, z'

loop_
  _atom_site_type_symbol
  _atom_site_label
  _atom_site_symmetry_multiplicity
  _atom_site_fract_x
  _atom_site_fract_y
  _atom_site_fract_z
  _atom_site_occupancy
  C   C1        1.0  0.33333298543221446  0.6666669831836741  0.635191640772945  1.0000
  N   N1        1.0  0.0  0.0  0.4787020096558198  1.0000
  N   N2        1.0  0.33333298543221446  0.6666669831836741  0.6778211319826052  1.0000
  O   O1        1.0  0.6666669847440474  0.3333329859851446  0.32217886801739504  1.0000
  P   P1        1.0  0.6666669847440474  0.3333329859851446  0.3755938741079888  1.0000
  S   S1        1.0  0.33333298543221446  0.6666669831836741  0.5749401715822231  1.0000
  Ti  Ti1       1.0  0.33333298543221446  0.6666669831836741  0.4414778472299333  1.0000
  Ti  Ti2       1.0  0.6666669847440474  0.3333329859851446  0.5194056249132659  1.0000
