data_image0
_chemical_formula_structural       C2ClNSZr2
_chemical_formula_sum              "C2 Cl1 N1 S1 Zr2"
_cell_length_a       3.4371351238977446
_cell_length_b       3.4371351238854033
_cell_length_c       26.435921012358584
_cell_angle_alpha    90.0
_cell_angle_beta     90.0
_cell_angle_gamma    120.00000000011876

_space_group_name_H-M_alt    "P 1"
_space_group_IT_number       1

loop_
  _space_group_symop_operation_xyz
  'x, y, z'

loop_
  _atom_site_type_symbol
  _atom_site_label
  _atom_site_symmetry_multiplicity
  _atom_site_fract_x
  _atom_site_fract_y
  _atom_site_fract_z
  _atom_site_occupancy
  C   C1        1.0  0.0  0.0  0.4542310700890165  1.0000
  C   C2        1.0  0.33333298543221457  0.6666669831836742  0.6007341906246536  1.0000
  Cl  Cl1       1.0  0.6666669847440474  0.3333329859851446  0.3404458651466151  1.0000
  N   N1        1.0  0.33333298543221457  0.6666669831836742  0.553361774653079  1.0000
  S   S1        1.0  0.33333298543221457  0.6666669831836742  0.6595541348533849  1.0000
  Zr  Zr1       1.0  0.33333298543221457  0.6666669831836742  0.4086631853949905  1.0000
  Zr  Zr2       1.0  0.6666669847440474  0.3333329859851446  0.5008509574597289  1.0000
