data_image0
_chemical_formula_structural       FNOY2
_chemical_formula_sum              "F1 N1 O1 Y2"
_cell_length_a       3.547513630026873
_cell_length_b       3.547513630026637
_cell_length_c       22.79610825933159
_cell_angle_alpha    90.0
_cell_angle_beta     90.0
_cell_angle_gamma    120.0000000000022

_space_group_name_H-M_alt    "P 1"
_space_group_IT_number       1

loop_
  _space_group_symop_operation_xyz
  'x, y, z'

loop_
  _atom_site_type_symbol
  _atom_site_label
  _atom_site_symmetry_multiplicity
  _atom_site_fract_x
  _atom_site_fract_y
  _atom_site_fract_z
  _atom_site_occupancy
  F   F1        1.0  0.6666669847440476  0.3333329859851445  0.39480423138962106  1.0000
  N   N1        1.0  0.0  0.0  0.4970544257368574  1.0000
  O   O1        1.0  0.3333329854322146  0.6666669831836742  0.605195768610379  1.0000
  Y   Y1        1.0  0.3333329854322146  0.6666669831836742  0.4481837757070453  1.0000
  Y   Y2        1.0  0.6666669847440476  0.3333329859851445  0.5733936958160717  1.0000
