data_image0
_chemical_formula_structural       C2NO2Ti2
_chemical_formula_sum              "C2 N1 O2 Ti2"
_cell_length_a       3.112110713753479
_cell_length_b       3.1121107137584207
_cell_length_c       25.17928257615178
_cell_angle_alpha    90.0
_cell_angle_beta     90.0
_cell_angle_gamma    119.99999999994748

_space_group_name_H-M_alt    "P 1"
_space_group_IT_number       1

loop_
  _space_group_symop_operation_xyz
  'x, y, z'

loop_
  _atom_site_type_symbol
  _atom_site_label
  _atom_site_symmetry_multiplicity
  _atom_site_fract_x
  _atom_site_fract_y
  _atom_site_fract_z
  _atom_site_occupancy
  C   C1        1.0  0.0  0.0  0.553964629493177  1.0000
  C   C2        1.0  0.6666669847440473  0.3333329859851446  0.404605287124594  1.0000
  N   N1        1.0  0.6666669847440473  0.3333329859851446  0.35743671301120516  1.0000
  O   O1        1.0  0.3333329854322145  0.6666669831836742  0.642563286988795  1.0000
  O   O2        1.0  0.6666669847440473  0.3333329859851446  0.4576806816296198  1.0000
  Ti  Ti1       1.0  0.3333329854322145  0.6666669831836742  0.5094597237078183  1.0000
  Ti  Ti2       1.0  0.6666669847440473  0.3333329859851446  0.607022122535314  1.0000
