data_image0
_chemical_formula_structural       CFHOZr2
_chemical_formula_sum              "C1 F1 H1 O1 Zr2"
_cell_length_a       3.3623647606772282
_cell_length_b       3.362364760671579
_cell_length_c       24.11405918019992
_cell_angle_alpha    90.0
_cell_angle_beta     90.0
_cell_angle_gamma    120.00000000005559

_space_group_name_H-M_alt    "P 1"
_space_group_IT_number       1

loop_
  _space_group_symop_operation_xyz
  'x, y, z'

loop_
  _atom_site_type_symbol
  _atom_site_label
  _atom_site_symmetry_multiplicity
  _atom_site_fract_x
  _atom_site_fract_y
  _atom_site_fract_z
  _atom_site_occupancy
  C   C1        1.0  0.0  0.0  0.5218580667050664  1.0000
  F   F1        1.0  0.3333329854322145  0.6666669831836742  0.6267737450279665  1.0000
  H   H1        1.0  0.6666669847440474  0.3333329859851446  0.37322625497203343  1.0000
  O   O1        1.0  0.6666669847440474  0.3333329859851446  0.41416306647488077  1.0000
  Zr  Zr1       1.0  0.3333329854322145  0.6666669831836742  0.4700483722794401  1.0000
  Zr  Zr2       1.0  0.6666669847440474  0.3333329859851446  0.5719808463022134  1.0000
