data_image0
_chemical_formula_structural       CClN2OTi2
_chemical_formula_sum              "C1 Cl1 N2 O1 Ti2"
_cell_length_a       3.210382809845382
_cell_length_b       3.2103828098464433
_cell_length_c       25.53758367750673
_cell_angle_alpha    90.0
_cell_angle_beta     90.0
_cell_angle_gamma    119.99999999998907

_space_group_name_H-M_alt    "P 1"
_space_group_IT_number       1

loop_
  _space_group_symop_operation_xyz
  'x, y, z'

loop_
  _atom_site_type_symbol
  _atom_site_label
  _atom_site_symmetry_multiplicity
  _atom_site_fract_x
  _atom_site_fract_y
  _atom_site_fract_z
  _atom_site_occupancy
  C   C1        1.0  0.6666669847440474  0.3333329859851447  0.398930465165681  1.0000
  Cl  Cl1       1.0  0.33333298543221446  0.6666669831836743  0.6475782472745408  1.0000
  N   N1        1.0  0.0  0.0  0.5408406588232326  1.0000
  N   N2        1.0  0.6666669847440474  0.3333329859851447  0.3524217527254593  1.0000
  O   O1        1.0  0.6666669847440474  0.3333329859851447  0.451222444427554  1.0000
  Ti  Ti1       1.0  0.33333298543221446  0.6666669831836743  0.5011274645262009  1.0000
  Ti  Ti2       1.0  0.6666669847440474  0.3333329859851447  0.5816079825242078  1.0000
