data_image0
_chemical_formula_structural       C3N2OSSc2
_chemical_formula_sum              "C3 N2 O1 S1 Sc2"
_cell_length_a       3.402724898359088
_cell_length_b       3.4027248983529206
_cell_length_c       28.37437651387345
_cell_angle_alpha    90.0
_cell_angle_beta     90.0
_cell_angle_gamma    120.00000000005997

_space_group_name_H-M_alt    "P 1"
_space_group_IT_number       1

loop_
  _space_group_symop_operation_xyz
  'x, y, z'

loop_
  _atom_site_type_symbol
  _atom_site_label
  _atom_site_symmetry_multiplicity
  _atom_site_fract_x
  _atom_site_fract_y
  _atom_site_fract_z
  _atom_site_occupancy
  C   C1        1.0  0.0  0.0  0.5058652634949052  1.0000
  C   C2        1.0  0.33333298543221446  0.6666669831836742  0.6403339006796533  1.0000
  C   C3        1.0  0.6666669847440474  0.3333329859851446  0.37199221046300524  1.0000
  N   N1        1.0  0.33333298543221446  0.6666669831836742  0.5964312764439541  1.0000
  N   N2        1.0  0.6666669847440474  0.3333329859851446  0.4159376484305716  1.0000
  O   O1        1.0  0.33333298543221446  0.6666669831836742  0.6828124136719087  1.0000
  S   S1        1.0  0.6666669847440474  0.3333329859851446  0.3171875863280913  1.0000
  Sc  Sc1       1.0  0.33333298543221446  0.6666669831836742  0.46174253476830035  1.0000
  Sc  Sc2       1.0  0.6666669847440474  0.3333329859851446  0.5496308668053325  1.0000
