data_image0
_chemical_formula_structural       CHf2N3O
_chemical_formula_sum              "C1 Hf2 N3 O1"
_cell_length_a       3.2784021355495527
_cell_length_b       3.278402135551342
_cell_length_c       25.66176839789658
_cell_angle_alpha    90.0
_cell_angle_beta     90.0
_cell_angle_gamma    119.99999999998195

_space_group_name_H-M_alt    "P 1"
_space_group_IT_number       1

loop_
  _space_group_symop_operation_xyz
  'x, y, z'

loop_
  _atom_site_type_symbol
  _atom_site_label
  _atom_site_symmetry_multiplicity
  _atom_site_fract_x
  _atom_site_fract_y
  _atom_site_fract_z
  _atom_site_occupancy
  C   C1        1.0  0.3333329854322145  0.6666669831836742  0.6020955330931528  1.0000
  Hf  Hf1       1.0  0.3333329854322145  0.6666669831836742  0.447759960922742  1.0000
  Hf  Hf2       1.0  0.6666669847440475  0.3333329859851446  0.5455038135981666  1.0000
  N   N1        1.0  0.0  0.0  0.49782206653520233  1.0000
  N   N2        1.0  0.3333329854322145  0.6666669831836742  0.6492837180800952  1.0000
  N   N3        1.0  0.6666669847440475  0.3333329859851446  0.4027507955980492  1.0000
  O   O1        1.0  0.6666669847440475  0.3333329859851446  0.3507162819199048  1.0000
