data_image0
_chemical_formula_structural       BrHf2NOP
_chemical_formula_sum              "Br1 Hf2 N1 O1 P1"
_cell_length_a       3.350761013818643
_cell_length_b       3.350761013817731
_cell_length_c       25.725036974624356
_cell_angle_alpha    90.0
_cell_angle_beta     90.0
_cell_angle_gamma    120.000000000009

_space_group_name_H-M_alt    "P 1"
_space_group_IT_number       1

loop_
  _space_group_symop_operation_xyz
  'x, y, z'

loop_
  _atom_site_type_symbol
  _atom_site_label
  _atom_site_symmetry_multiplicity
  _atom_site_fract_x
  _atom_site_fract_y
  _atom_site_fract_z
  _atom_site_occupancy
  Br  Br1       1.0  0.6666669847440474  0.33333298598514477  0.34985372455937624  1.0000
  Hf  Hf1       1.0  0.3333329854322146  0.6666669831836743  0.4262480372614235  1.0000
  Hf  Hf2       1.0  0.6666669847440474  0.33333298598514477  0.5185340513524035  1.0000
  N   N1        1.0  0.0  0.0  0.4699602050716811  1.0000
  O   O1        1.0  0.3333329854322146  0.6666669831836743  0.6501462754406238  1.0000
  P   P1        1.0  0.3333329854322146  0.6666669831836743  0.5919292463107702  1.0000
