data_image0
_chemical_formula_structural       C2N3S2Sc2
_chemical_formula_sum              "C2 N3 S2 Sc2"
_cell_length_a       3.357625353336361
_cell_length_b       3.357625353315706
_cell_length_c       28.58587104167429
_cell_angle_alpha    90.0
_cell_angle_beta     90.0
_cell_angle_gamma    120.0000000002035

_space_group_name_H-M_alt    "P 1"
_space_group_IT_number       1

loop_
  _space_group_symop_operation_xyz
  'x, y, z'

loop_
  _atom_site_type_symbol
  _atom_site_label
  _atom_site_symmetry_multiplicity
  _atom_site_fract_x
  _atom_site_fract_y
  _atom_site_fract_z
  _atom_site_occupancy
  C   C1        1.0  0.3333329854322145  0.6666669831836742  0.6308264288893778  1.0000
  C   C2        1.0  0.6666669847440476  0.33333298598514444  0.36917357111062227  1.0000
  N   N1        1.0  0.0  0.0  0.5000000292036053  1.0000
  N   N2        1.0  0.3333329854322145  0.6666669831836742  0.5870300761602648  1.0000
  N   N3        1.0  0.6666669847440476  0.33333298598514444  0.4129699242723812  1.0000
  S   S1        1.0  0.3333329854322145  0.6666669831836742  0.6851591477874078  1.0000
  S   S2        1.0  0.6666669847440476  0.33333298598514444  0.3148408522125923  1.0000
  Sc  Sc1       1.0  0.3333329854322145  0.6666669831836742  0.4574003620090546  1.0000
  Sc  Sc2       1.0  0.6666669847440476  0.33333298598514444  0.5425996379909377  1.0000
