data_image0
_chemical_formula_structural       C2N3O2Y2
_chemical_formula_sum              "C2 N3 O2 Y2"
_cell_length_a       3.547892096686394
_cell_length_b       3.547892096671746
_cell_length_c       28.368248697905933
_cell_angle_alpha    90.0
_cell_angle_beta     90.0
_cell_angle_gamma    120.00000000013658

_space_group_name_H-M_alt    "P 1"
_space_group_IT_number       1

loop_
  _space_group_symop_operation_xyz
  'x, y, z'

loop_
  _atom_site_type_symbol
  _atom_site_label
  _atom_site_symmetry_multiplicity
  _atom_site_fract_x
  _atom_site_fract_y
  _atom_site_fract_z
  _atom_site_occupancy
  C   C1        1.0  0.3333329854322145  0.6666669831836742  0.6402810953519343  1.0000
  C   C2        1.0  0.6666669847440474  0.3333329859851446  0.3591563261710495  1.0000
  N   N1        1.0  0.0  0.0  0.4986577521359123  1.0000
  N   N2        1.0  0.3333329854322145  0.6666669831836742  0.596316638374666  1.0000
  N   N3        1.0  0.6666669847440474  0.3333329859851446  0.3172561019131349  1.0000
  O   O1        1.0  0.3333329854322145  0.6666669831836742  0.6827438980868652  1.0000
  O   O2        1.0  0.6666669847440474  0.3333329859851446  0.4062126771050423  1.0000
  Y   Y1        1.0  0.3333329854322145  0.6666669831836742  0.4529030167603464  1.0000
  Y   Y2        1.0  0.6666669847440474  0.3333329859851446  0.5460724707293064  1.0000
