data_Ti2C
_symmetry_space_group_name_H-M   'P6/mmm'
_cell_length_a   3.0
_cell_length_b   3.0
_cell_length_c   20.0
_cell_angle_alpha  90
_cell_angle_beta   90
_cell_angle_gamma  120
_symmetry_Int_Tables_number 191
_chemical_formula_sum 'V2 C'
loop_
  _atom_site_label
  _atom_site_type_symbol
  _atom_site_fract_x
  _atom_site_fract_y
  _atom_site_fract_z
V1 V 0.333333 0.666667 0.25
V2 V 0.666667 0.333333 0.75
C1 C  0.000000 0.000000 0.5
