data_image0
_chemical_formula_structural       C2Hf2N3S2
_chemical_formula_sum              "C2 Hf2 N3 S2"
_cell_length_a       3.4139440964554284
_cell_length_b       3.4139440964534633
_cell_length_c       28.953277173732815
_cell_angle_alpha    90.0
_cell_angle_beta     90.0
_cell_angle_gamma    120.00000000001904

_space_group_name_H-M_alt    "P 1"
_space_group_IT_number       1

loop_
  _space_group_symop_operation_xyz
  'x, y, z'

loop_
  _atom_site_type_symbol
  _atom_site_label
  _atom_site_symmetry_multiplicity
  _atom_site_fract_x
  _atom_site_fract_y
  _atom_site_fract_z
  _atom_site_occupancy
  C   C1        1.0  0.33333298543221457  0.6666669831836742  0.6356068465242414  1.0000
  C   C2        1.0  0.6666669847440474  0.3333329859851446  0.3519560125918764  1.0000
  Hf  Hf1       1.0  0.33333298543221457  0.6666669831836742  0.46668157414308326  1.0000
  Hf  Hf2       1.0  0.6666669847440474  0.3333329859851446  0.5464985934684591  1.0000
  N   N1        1.0  0.0  0.0  0.5095236028215016  1.0000
  N   N2        1.0  0.33333298543221457  0.6666669831836742  0.5918447663365975  1.0000
  N   N3        1.0  0.6666669847440474  0.3333329859851446  0.3108456409267908  1.0000
  S   S1        1.0  0.33333298543221457  0.6666669831836742  0.6891543590732092  1.0000
  S   S2        1.0  0.6666669847440474  0.3333329859851446  0.41049768792782343  1.0000
