data_image0
_chemical_formula_structural       N2O2PZr2
_chemical_formula_sum              "N2 O2 P1 Zr2"
_cell_length_a       3.335389376198964
_cell_length_b       3.3353893761957853
_cell_length_c       26.46246361871838
_cell_angle_alpha    90.0
_cell_angle_beta     90.0
_cell_angle_gamma    120.00000000003155

_space_group_name_H-M_alt    "P 1"
_space_group_IT_number       1

loop_
  _space_group_symop_operation_xyz
  'x, y, z'

loop_
  _atom_site_type_symbol
  _atom_site_label
  _atom_site_symmetry_multiplicity
  _atom_site_fract_x
  _atom_site_fract_y
  _atom_site_fract_z
  _atom_site_occupancy
  N   N1        1.0  0.0  0.0  0.5168644475827839  1.0000
  N   N2        1.0  0.3333329854322145  0.6666669831836742  0.6096553026576945  1.0000
  O   O1        1.0  0.3333329854322145  0.6666669831836742  0.6598956117738864  1.0000
  O   O2        1.0  0.6666669847440476  0.3333329859851446  0.3401043882261134  1.0000
  P   P1        1.0  0.6666669847440476  0.3333329859851446  0.39650790178479095  1.0000
  Zr  Zr1       1.0  0.3333329854322145  0.6666669831836742  0.4700755893195944  1.0000
  Zr  Zr2       1.0  0.6666669847440476  0.3333329859851446  0.5694346330863977  1.0000
