data_image0
_chemical_formula_structural       CHN2O2Zr2
_chemical_formula_sum              "C1 H1 N2 O2 Zr2"
_cell_length_a       3.350176598033819
_cell_length_b       3.3501765980361427
_cell_length_c       26.561996047241692
_cell_angle_alpha    90.0
_cell_angle_beta     90.0
_cell_angle_gamma    119.99999999997706

_space_group_name_H-M_alt    "P 1"
_space_group_IT_number       1

loop_
  _space_group_symop_operation_xyz
  'x, y, z'

loop_
  _atom_site_type_symbol
  _atom_site_label
  _atom_site_symmetry_multiplicity
  _atom_site_fract_x
  _atom_site_fract_y
  _atom_site_fract_z
  _atom_site_occupancy
  C   C1        1.0  0.3333329854322144  0.6666669831836742  0.6157877246107489  1.0000
  H   H1        1.0  0.6666669847440473  0.3333329859851445  0.3388299578086338  1.0000
  N   N1        1.0  0.0  0.0  0.4697418939249267  1.0000
  N   N2        1.0  0.3333329854322144  0.6666669831836742  0.5688479922285672  1.0000
  O   O1        1.0  0.3333329854322144  0.6666669831836742  0.6611700421913662  1.0000
  O   O2        1.0  0.6666669847440473  0.3333329859851445  0.37605763669974357  1.0000
  Zr  Zr1       1.0  0.3333329854322144  0.6666669831836742  0.4259495753867488  1.0000
  Zr  Zr2       1.0  0.6666669847440473  0.3333329859851445  0.5143504952284682  1.0000
