data_image0
_chemical_formula_structural       C2FNSSc2
_chemical_formula_sum              "C2 F1 N1 S1 Sc2"
_cell_length_a       3.4575727812226322
_cell_length_b       3.4575727812195836
_cell_length_c       26.033885486879228
_cell_angle_alpha    90.0
_cell_angle_beta     90.0
_cell_angle_gamma    120.00000000002917

_space_group_name_H-M_alt    "P 1"
_space_group_IT_number       1

loop_
  _space_group_symop_operation_xyz
  'x, y, z'

loop_
  _atom_site_type_symbol
  _atom_site_label
  _atom_site_symmetry_multiplicity
  _atom_site_fract_x
  _atom_site_fract_y
  _atom_site_fract_z
  _atom_site_occupancy
  C   C1        1.0  0.0  0.0  0.4345356751888502  1.0000
  C   C2        1.0  0.33333298543221446  0.6666669831836742  0.6085752781807543  1.0000
  F   F1        1.0  0.6666669847440474  0.3333329859851446  0.3457032952125374  1.0000
  N   N1        1.0  0.33333298543221446  0.6666669831836742  0.6542967047874625  1.0000
  S   S1        1.0  0.33333298543221446  0.6666669831836742  0.5444187899043751  1.0000
  Sc  Sc1       1.0  0.33333298543221446  0.6666669831836742  0.386577237882056  1.0000
  Sc  Sc2       1.0  0.6666669847440474  0.3333329859851446  0.4809879775365892  1.0000
