data_image0
_chemical_formula_structural       CClN2Y2
_chemical_formula_sum              "C1 Cl1 N2 Y2"
_cell_length_a       3.6048769081052723
_cell_length_b       3.60487690811405
_cell_length_c       25.10720880140262
_cell_angle_alpha    90.0
_cell_angle_beta     90.0
_cell_angle_gamma    119.99999999991945

_space_group_name_H-M_alt    "P 1"
_space_group_IT_number       1

loop_
  _space_group_symop_operation_xyz
  'x, y, z'

loop_
  _atom_site_type_symbol
  _atom_site_label
  _atom_site_symmetry_multiplicity
  _atom_site_fract_x
  _atom_site_fract_y
  _atom_site_fract_z
  _atom_site_occupancy
  C   C1        1.0  0.3333329854322146  0.6666669831836743  0.5937193480506128  1.0000
  Cl  Cl1       1.0  0.6666669847440474  0.3333329859851447  0.3584627853772903  1.0000
  N   N1        1.0  0.0  0.0  0.48075017240787543  1.0000
  N   N2        1.0  0.3333329854322146  0.6666669831836743  0.6415372146227097  1.0000
  Y   Y1        1.0  0.3333329854322146  0.6666669831836743  0.42948567548713357  1.0000
  Y   Y2        1.0  0.6666669847440474  0.3333329859851447  0.5344283984960259  1.0000
