data_image0
_chemical_formula_structural       C2HNSY2
_chemical_formula_sum              "C2 H1 N1 S1 Y2"
_cell_length_a       3.6441839356195755
_cell_length_b       3.6441839356225882
_cell_length_c       25.977775853085106
_cell_angle_alpha    90.0
_cell_angle_beta     90.0
_cell_angle_gamma    119.99999999997266

_space_group_name_H-M_alt    "P 1"
_space_group_IT_number       1

loop_
  _space_group_symop_operation_xyz
  'x, y, z'

loop_
  _atom_site_type_symbol
  _atom_site_label
  _atom_site_symmetry_multiplicity
  _atom_site_fract_x
  _atom_site_fract_y
  _atom_site_fract_z
  _atom_site_occupancy
  C   C1        1.0  0.0  0.0  0.43935763573258335  1.0000
  C   C2        1.0  0.33333298543221457  0.6666669831836742  0.5934737643879133  1.0000
  H   H1        1.0  0.6666669847440476  0.3333329859851446  0.3464499828968678  1.0000
  N   N1        1.0  0.33333298543221457  0.6666669831836742  0.545511443133096  1.0000
  S   S1        1.0  0.33333298543221457  0.6666669831836742  0.6535500171031324  1.0000
  Y   Y1        1.0  0.33333298543221457  0.6666669831836742  0.38700611436524823  1.0000
  Y   Y2        1.0  0.6666669847440476  0.3333329859851446  0.49211976444807665  1.0000
