data_image0
_chemical_formula_structural       CN3OSZr2
_chemical_formula_sum              "C1 N3 O1 S1 Zr2"
_cell_length_a       3.4352142681000446
_cell_length_b       3.4352142680862934
_cell_length_c       27.471593047175396
_cell_angle_alpha    90.0
_cell_angle_beta     90.0
_cell_angle_gamma    120.00000000013243

_space_group_name_H-M_alt    "P 1"
_space_group_IT_number       1

loop_
  _space_group_symop_operation_xyz
  'x, y, z'

loop_
  _atom_site_type_symbol
  _atom_site_label
  _atom_site_symmetry_multiplicity
  _atom_site_fract_x
  _atom_site_fract_y
  _atom_site_fract_z
  _atom_site_occupancy
  C   C1        1.0  0.6666669847440476  0.3333329859851446  0.37096011242257443  1.0000
  N   N1        1.0  0.0  0.0  0.5377208538920453  1.0000
  N   N2        1.0  0.3333329854322145  0.6666669831836742  0.6241834508794132  1.0000
  N   N3        1.0  0.6666669847440476  0.3333329859851446  0.3276111430649403  1.0000
  O   O1        1.0  0.3333329854322145  0.6666669831836742  0.6723888569350596  1.0000
  S   S1        1.0  0.6666669847440476  0.3333329859851446  0.4324369007484485  1.0000
  Zr  Zr1       1.0  0.3333329854322145  0.6666669831836742  0.49420640774100705  1.0000
  Zr  Zr2       1.0  0.6666669847440476  0.3333329859851446  0.5851238083140847  1.0000
