data_image0
_chemical_formula_structural       C3N2Ti2
_chemical_formula_sum              "C3 N2 Ti2"
_cell_length_a       3.1720010193049646
_cell_length_b       3.1720010193030697
_cell_length_c       25.470150236597505
_cell_angle_alpha    90.0
_cell_angle_beta     90.0
_cell_angle_gamma    120.00000000001977

_space_group_name_H-M_alt    "P 1"
_space_group_IT_number       1

loop_
  _space_group_symop_operation_xyz
  'x, y, z'

loop_
  _atom_site_type_symbol
  _atom_site_label
  _atom_site_symmetry_multiplicity
  _atom_site_fract_x
  _atom_site_fract_y
  _atom_site_fract_z
  _atom_site_occupancy
  C   C1        1.0  0.0  0.0  0.5000000367243596  1.0000
  C   C2        1.0  0.33333298543221446  0.6666669831836742  0.5994063353096872  1.0000
  C   C3        1.0  0.6666669847440474  0.3333329859851446  0.4005936652343776  1.0000
  N   N1        1.0  0.33333298543221446  0.6666669831836742  0.646645193828967  1.0000
  N   N2        1.0  0.6666669847440474  0.3333329859851446  0.3533548061710329  1.0000
  Ti  Ti1       1.0  0.33333298543221446  0.6666669831836742  0.4554956201276575  1.0000
  Ti  Ti2       1.0  0.6666669847440474  0.3333329859851446  0.5445043798723331  1.0000
