data_image0
_chemical_formula_structural       C2ClNOSc2
_chemical_formula_sum              "C2 Cl1 N1 O1 Sc2"
_cell_length_a       3.4089101059463585
_cell_length_b       3.4089101059233506
_cell_length_c       25.90282622784197
_cell_angle_alpha    90.0
_cell_angle_beta     90.0
_cell_angle_gamma    120.00000000022327

_space_group_name_H-M_alt    "P 1"
_space_group_IT_number       1

loop_
  _space_group_symop_operation_xyz
  'x, y, z'

loop_
  _atom_site_type_symbol
  _atom_site_label
  _atom_site_symmetry_multiplicity
  _atom_site_fract_x
  _atom_site_fract_y
  _atom_site_fract_z
  _atom_site_occupancy
  C   C1        1.0  0.0  0.0  0.5397430588977341  1.0000
  C   C2        1.0  0.6666669847440472  0.3333329859851446  0.39333555906044027  1.0000
  Cl  Cl1       1.0  0.33333298543221446  0.6666669831836742  0.6525475667853479  1.0000
  N   N1        1.0  0.6666669847440472  0.3333329859851446  0.34745243321465197  1.0000
  O   O1        1.0  0.6666669847440472  0.3333329859851446  0.4449294201204518  1.0000
  Sc  Sc1       1.0  0.33333298543221446  0.6666669831836742  0.49170713296324  1.0000
  Sc  Sc2       1.0  0.6666669847440472  0.3333329859851446  0.5876042467908525  1.0000
