data_image0
_chemical_formula_structural       CBrClSc2
_chemical_formula_sum              "C1 Br1 Cl1 Sc2"
_cell_length_a       3.4657513423551563
_cell_length_b       3.46575134235523
_cell_length_c       29.019760783112993
_cell_angle_alpha    90.0
_cell_angle_beta     90.0
_cell_angle_gamma    119.9999999999993

_space_group_name_H-M_alt    "P 1"
_space_group_IT_number       1

loop_
  _space_group_symop_operation_xyz
  'x, y, z'

loop_
  _atom_site_type_symbol
  _atom_site_label
  _atom_site_symmetry_multiplicity
  _atom_site_fract_x
  _atom_site_fract_y
  _atom_site_fract_z
  _atom_site_occupancy
  C   C1        1.0  0.0  0.0  0.5044031809710117  1.0000
  Br  Br1       1.0  1.7529284630777864e-33  2.492282236483889e-32  0.3947074826493186  1.0000
  Cl  Cl1       1.0  0.3333329854322145  0.6666669831836742  0.6036623214123791  1.0000
  Sc  Sc1       1.0  0.3333329854322145  0.6666669831836742  0.4609726882365959  1.0000
  Sc  Sc2       1.0  0.6666669847440475  0.3333329859851446  0.546240106786736  1.0000
