data_image0
_chemical_formula_structural       HN2O2Ti2
_chemical_formula_sum              "H1 N2 O2 Ti2"
_cell_length_a       3.1133956587476317
_cell_length_b       3.1133956587477596
_cell_length_c       24.962461107269906
_cell_angle_alpha    90.0
_cell_angle_beta     90.0
_cell_angle_gamma    119.99999999999864

_space_group_name_H-M_alt    "P 1"
_space_group_IT_number       1

loop_
  _space_group_symop_operation_xyz
  'x, y, z'

loop_
  _atom_site_type_symbol
  _atom_site_label
  _atom_site_symmetry_multiplicity
  _atom_site_fract_x
  _atom_site_fract_y
  _atom_site_fract_z
  _atom_site_occupancy
  H   H1        1.0  0.6666669847440474  0.3333329859851446  0.3605413729569676  1.0000
  N   N1        1.0  0.0  0.0  0.49300904612661434  1.0000
  N   N2        1.0  0.3333329854322145  0.6666669831836742  0.5874978048254978  1.0000
  O   O1        1.0  0.3333329854322145  0.6666669831836742  0.6394586270430325  1.0000
  O   O2        1.0  0.6666669847440474  0.3333329859851446  0.40011236580909587  1.0000
  Ti  Ti1       1.0  0.3333329854322145  0.6666669831836742  0.45063764580854143  1.0000
  Ti  Ti2       1.0  0.6666669847440474  0.3333329859851446  0.5409308347864683  1.0000
