data_image0
_chemical_formula_structural       FHNZr2
_chemical_formula_sum              "F1 H1 N1 Zr2"
_cell_length_a       3.3567571329904156
_cell_length_b       3.356757132987942
_cell_length_c       22.65520466904653
_cell_angle_alpha    90.0
_cell_angle_beta     90.0
_cell_angle_gamma    120.00000000002437

_space_group_name_H-M_alt    "P 1"
_space_group_IT_number       1

loop_
  _space_group_symop_operation_xyz
  'x, y, z'

loop_
  _atom_site_type_symbol
  _atom_site_label
  _atom_site_symmetry_multiplicity
  _atom_site_fract_x
  _atom_site_fract_y
  _atom_site_fract_z
  _atom_site_occupancy
  F   F1        1.0  0.3333329854322145  0.6666669831836741  0.6027402916250602  1.0000
  H   H1        1.0  0.6666669847440474  0.33333298598514444  0.39725970837493974  1.0000
  N   N1        1.0  0.0  0.0  0.4948413673933638  1.0000
  Zr  Zr1       1.0  0.3333329854322145  0.6666669831836741  0.44170850655229066  1.0000
  Zr  Zr2       1.0  0.6666669847440474  0.33333298598514444  0.544520984932385  1.0000
