data_image0
_chemical_formula_structural       CN2O2Zr2
_chemical_formula_sum              "C1 N2 O2 Zr2"
_cell_length_a       3.3697063470963187
_cell_length_b       3.3697063470943647
_cell_length_c       25.700919344042948
_cell_angle_alpha    90.0
_cell_angle_beta     90.0
_cell_angle_gamma    120.0000000000192

_space_group_name_H-M_alt    "P 1"
_space_group_IT_number       1

loop_
  _space_group_symop_operation_xyz
  'x, y, z'

loop_
  _atom_site_type_symbol
  _atom_site_label
  _atom_site_symmetry_multiplicity
  _atom_site_fract_x
  _atom_site_fract_y
  _atom_site_fract_z
  _atom_site_occupancy
  C   C1        1.0  0.0  0.0  0.5000000320103652  1.0000
  N   N1        1.0  0.3333329854322144  0.6666669831836742  0.5989202984298274  1.0000
  N   N2        1.0  0.6666669847440474  0.3333329859851446  0.40107970157017236  1.0000
  O   O1        1.0  0.3333329854322144  0.6666669831836742  0.6498179742318808  1.0000
  O   O2        1.0  0.6666669847440474  0.3333329859851446  0.3501820257681192  1.0000
  Zr  Zr1       1.0  0.3333329854322144  0.6666669831836742  0.44855853074532687  1.0000
  Zr  Zr2       1.0  0.6666669847440474  0.3333329859851446  0.5514414687768977  1.0000
