data_image0
_chemical_formula_structural       CClN2O2Ti2
_chemical_formula_sum              "C1 Cl1 N2 O2 Ti2"
_cell_length_a       3.0849283216771486
_cell_length_b       3.0849283216771073
_cell_length_c       30.395665587356184
_cell_angle_alpha    90.0
_cell_angle_beta     90.0
_cell_angle_gamma    120.00000000000045

_space_group_name_H-M_alt    "P 1"
_space_group_IT_number       1

loop_
  _space_group_symop_operation_xyz
  'x, y, z'

loop_
  _atom_site_type_symbol
  _atom_site_label
  _atom_site_symmetry_multiplicity
  _atom_site_fract_x
  _atom_site_fract_y
  _atom_site_fract_z
  _atom_site_occupancy
  C   C1        1.0  0.6666669847440474  0.3333329859851446  0.3351432233921083  1.0000
  Cl  Cl1       1.0  0.3333329854322145  0.6666669831836742  0.7039051514060687  1.0000
  N   N1        1.0  0.0  0.0  0.4584667917741241  1.0000
  N   N2        1.0  0.6666669847440474  0.3333329859851446  0.2960948485939315  1.0000
  O   O1        1.0  0.3333329854322145  0.6666669831836742  0.5300547205346461  1.0000
  O   O2        1.0  0.6666669847440474  0.3333329859851446  0.3791841055640186  1.0000
  Ti  Ti1       1.0  0.3333329854322145  0.6666669831836742  0.4220939937454518  1.0000
  Ti  Ti2       1.0  0.6666669847440474  0.3333329859851446  0.5003718871517753  1.0000
