data_image0
_chemical_formula_structural       C2ClNOSZr2
_chemical_formula_sum              "C2 Cl1 N1 O1 S1 Zr2"
_cell_length_a       3.3505564438896163
_cell_length_b       3.3505564438877613
_cell_length_c       29.20146133739647
_cell_angle_alpha    90.0
_cell_angle_beta     90.0
_cell_angle_gamma    120.00000000001832

_space_group_name_H-M_alt    "P 1"
_space_group_IT_number       1

loop_
  _space_group_symop_operation_xyz
  'x, y, z'

loop_
  _atom_site_type_symbol
  _atom_site_label
  _atom_site_symmetry_multiplicity
  _atom_site_fract_x
  _atom_site_fract_y
  _atom_site_fract_z
  _atom_site_occupancy
  C   C1        1.0  0.0  0.0  0.4946248363812378  1.0000
  C   C2        1.0  0.6666669847440473  0.3333329859851446  0.36131333607564  1.0000
  Cl  Cl1       1.0  0.3333329854322145  0.6666669831836742  0.6917962462216142  1.0000
  N   N1        1.0  0.6666669847440473  0.3333329859851446  0.40442396269976455  1.0000
  O   O1        1.0  0.3333329854322145  0.6666669831836742  0.5742532732420924  1.0000
  S   S1        1.0  0.6666669847440473  0.3333329859851446  0.3082037537783859  1.0000
  Zr  Zr1       1.0  0.3333329854322145  0.6666669831836742  0.45131022538808346  1.0000
  Zr  Zr2       1.0  0.6666669847440473  0.3333329859851446  0.5442717686160109  1.0000
