data_image0
_chemical_formula_structural       C2Hf2N3S2
_chemical_formula_sum              "C2 Hf2 N3 S2"
_cell_length_a       3.3500053121642805
_cell_length_b       3.350005312130565
_cell_length_c       28.616948626801978
_cell_angle_alpha    90.0
_cell_angle_beta     90.0
_cell_angle_gamma    120.00000000033293

_space_group_name_H-M_alt    "P 1"
_space_group_IT_number       1

loop_
  _space_group_symop_operation_xyz
  'x, y, z'

loop_
  _atom_site_type_symbol
  _atom_site_label
  _atom_site_symmetry_multiplicity
  _atom_site_fract_x
  _atom_site_fract_y
  _atom_site_fract_z
  _atom_site_occupancy
  C   C1        1.0  0.3333329854322144  0.6666669831836742  0.6313409466450897  1.0000
  C   C2        1.0  0.6666669847440472  0.3333329859851446  0.36865905335491134  1.0000
  Hf  Hf1       1.0  0.3333329854322144  0.6666669831836742  0.4597330087912837  1.0000
  Hf  Hf2       1.0  0.6666669847440472  0.3333329859851446  0.5402669912087095  1.0000
  N   N1        1.0  0.0  0.0  0.5000000293047528  1.0000
  N   N2        1.0  0.3333329854322144  0.6666669831836742  0.5871535906230257  1.0000
  N   N3        1.0  0.6666669847440472  0.3333329859851446  0.4128464098111194  1.0000
  S   S1        1.0  0.3333329854322144  0.6666669831836742  0.6855010603202185  1.0000
  S   S2        1.0  0.6666669847440472  0.3333329859851446  0.3144989396797814  1.0000
