data_image0
_chemical_formula_structural       HNO2PSc2
_chemical_formula_sum              "H1 N1 O2 P1 Sc2"
_cell_length_a       3.2465610622968417
_cell_length_b       3.2465610622948025
_cell_length_c       26.125301759121797
_cell_angle_alpha    90.0
_cell_angle_beta     90.0
_cell_angle_gamma    120.00000000002078

_space_group_name_H-M_alt    "P 1"
_space_group_IT_number       1

loop_
  _space_group_symop_operation_xyz
  'x, y, z'

loop_
  _atom_site_type_symbol
  _atom_site_label
  _atom_site_symmetry_multiplicity
  _atom_site_fract_x
  _atom_site_fract_y
  _atom_site_fract_z
  _atom_site_occupancy
  H   H1        1.0  0.6666669847440472  0.3333329859851446  0.3444936285513946  1.0000
  N   N1        1.0  0.0  0.0  0.4753100461934591  1.0000
  O   O1        1.0  0.33333298543221446  0.6666669831836742  0.6555063714486055  1.0000
  O   O2        1.0  0.6666669847440472  0.3333329859851446  0.3821753792696349  1.0000
  P   P1        1.0  0.33333298543221446  0.6666669831836742  0.5983300335358215  1.0000
  Sc  Sc1       1.0  0.33333298543221446  0.6666669831836742  0.4294492161932332  1.0000
  Sc  Sc2       1.0  0.6666669847440472  0.3333329859851446  0.522495000843844  1.0000
