data_image0
_chemical_formula_structural       CClHTi2
_chemical_formula_sum              "C1 Cl1 H1 Ti2"
_cell_length_a       3.1515466482592873
_cell_length_b       3.1515466482564527
_cell_length_c       22.882281572256623
_cell_angle_alpha    90.0
_cell_angle_beta     90.0
_cell_angle_gamma    120.00000000002976

_space_group_name_H-M_alt    "P 1"
_space_group_IT_number       1

loop_
  _space_group_symop_operation_xyz
  'x, y, z'

loop_
  _atom_site_type_symbol
  _atom_site_label
  _atom_site_symmetry_multiplicity
  _atom_site_fract_x
  _atom_site_fract_y
  _atom_site_fract_z
  _atom_site_occupancy
  C   C1        1.0  0.0  0.0  0.4839917929872405  1.0000
  Cl  Cl1       1.0  0.3333329854322146  0.6666669831836742  0.6066825778897873  1.0000
  H   H1        1.0  0.6666669847440475  0.3333329859851446  0.3933174221102127  1.0000
  Ti  Ti1       1.0  0.3333329854322146  0.6666669831836742  0.4346478515683223  1.0000
  Ti  Ti2       1.0  0.6666669847440475  0.3333329859851446  0.5326165025377096  1.0000
