data_image0
_chemical_formula_structural       CClN2OSY2
_chemical_formula_sum              "C1 Cl1 N2 O1 S1 Y2"
_cell_length_a       3.735710619598625
_cell_length_b       3.735710619583622
_cell_length_c       27.3745145839342
_cell_angle_alpha    90.0
_cell_angle_beta     90.0
_cell_angle_gamma    120.00000000013286

_space_group_name_H-M_alt    "P 1"
_space_group_IT_number       1

loop_
  _space_group_symop_operation_xyz
  'x, y, z'

loop_
  _atom_site_type_symbol
  _atom_site_label
  _atom_site_symmetry_multiplicity
  _atom_site_fract_x
  _atom_site_fract_y
  _atom_site_fract_z
  _atom_site_occupancy
  C   C1        1.0  0.6666669847440474  0.3333329859851445  0.3859750404365728  1.0000
  Cl  Cl1       1.0  0.3333329854322145  0.6666669831836742  0.6712270468795088  1.0000
  N   N1        1.0  0.0  0.0  0.5105325414869749  1.0000
  N   N2        1.0  0.6666669847440474  0.3333329859851445  0.431326190014434  1.0000
  O   O1        1.0  0.3333329854322145  0.6666669831836742  0.5731410637090727  1.0000
  S   S1        1.0  0.6666669847440474  0.3333329859851445  0.3287729531204912  1.0000
  Y   Y1        1.0  0.3333329854322145  0.6666669831836742  0.484659379441  1.0000
  Y   Y2        1.0  0.6666669847440474  0.3333329859851445  0.5985927713463444  1.0000
