data_image0
_chemical_formula_structural       CClN2SSc2
_chemical_formula_sum              "C1 Cl1 N2 S1 Sc2"
_cell_length_a       3.366724249103977
_cell_length_b       3.3667242490927003
_cell_length_c       26.172750742337115
_cell_angle_alpha    90.0
_cell_angle_beta     90.0
_cell_angle_gamma    120.0000000001108

_space_group_name_H-M_alt    "P 1"
_space_group_IT_number       1

loop_
  _space_group_symop_operation_xyz
  'x, y, z'

loop_
  _atom_site_type_symbol
  _atom_site_label
  _atom_site_symmetry_multiplicity
  _atom_site_fract_x
  _atom_site_fract_y
  _atom_site_fract_z
  _atom_site_occupancy
  C   C1        1.0  0.33333298543221446  0.6666669831836742  0.5967811079565767  1.0000
  Cl  Cl1       1.0  0.6666669847440474  0.3333329859851446  0.34386909074259336  1.0000
  N   N1        1.0  0.0  0.0  0.4533859403729312  1.0000
  N   N2        1.0  0.33333298543221446  0.6666669831836742  0.5489437464129712  1.0000
  S   S1        1.0  0.33333298543221446  0.6666669831836742  0.6561309092574066  1.0000
  Sc  Sc1       1.0  0.33333298543221446  0.6666669831836742  0.40858029515159766  1.0000
  Sc  Sc2       1.0  0.6666669847440474  0.3333329859851446  0.5005495206873105  1.0000
