data_image0
_chemical_formula_structural       CN2O2Zr2
_chemical_formula_sum              "C1 N2 O2 Zr2"
_cell_length_a       3.2873732071099844
_cell_length_b       3.2873732071029975
_cell_length_c       25.510797581178846
_cell_angle_alpha    90.0
_cell_angle_beta     90.0
_cell_angle_gamma    120.00000000007032

_space_group_name_H-M_alt    "P 1"
_space_group_IT_number       1

loop_
  _space_group_symop_operation_xyz
  'x, y, z'

loop_
  _atom_site_type_symbol
  _atom_site_label
  _atom_site_symmetry_multiplicity
  _atom_site_fract_x
  _atom_site_fract_y
  _atom_site_fract_z
  _atom_site_occupancy
  C   C1        1.0  0.3333329854322147  0.6666669831836742  0.5999745907444834  1.0000
  N   N1        1.0  0.0  0.0  0.44238081392122847  1.0000
  N   N2        1.0  0.3333329854322147  0.6666669831836742  0.551050125074797  1.0000
  O   O1        1.0  0.3333329854322147  0.6666669831836742  0.6472082077653287  1.0000
  O   O2        1.0  0.6666669847440474  0.3333329859851446  0.3527917922346712  1.0000
  Zr  Zr1       1.0  0.3333329854322147  0.6666669831836742  0.3912643831378108  1.0000
  Zr  Zr2       1.0  0.6666669847440474  0.3333329859851446  0.49378633111185266  1.0000
