data_image0
_chemical_formula_structural       BrCN2OZr2
_chemical_formula_sum              "Br1 C1 N2 O1 Zr2"
_cell_length_a       3.445762660111558
_cell_length_b       3.4457626601118188
_cell_length_c       26.114326305925708
_cell_angle_alpha    90.0
_cell_angle_beta     90.0
_cell_angle_gamma    119.9999999999975

_space_group_name_H-M_alt    "P 1"
_space_group_IT_number       1

loop_
  _space_group_symop_operation_xyz
  'x, y, z'

loop_
  _atom_site_type_symbol
  _atom_site_label
  _atom_site_symmetry_multiplicity
  _atom_site_fract_x
  _atom_site_fract_y
  _atom_site_fract_z
  _atom_site_occupancy
  Br  Br1       1.0  0.6666669847440473  0.3333329859851446  0.3446384139711762  1.0000
  C   C1        1.0  0.3333329854322145  0.6666669831836742  0.6091963466122303  1.0000
  N   N1        1.0  0.0  0.0  0.4641558471903983  1.0000
  N   N2        1.0  0.3333329854322145  0.6666669831836742  0.5614154500885362  1.0000
  O   O1        1.0  0.3333329854322145  0.6666669831836742  0.6553615860288238  1.0000
  Zr  Zr1       1.0  0.3333329854322145  0.6666669831836742  0.41999983471106783  1.0000
  Zr  Zr2       1.0  0.6666669847440473  0.3333329859851446  0.5071053910007093  1.0000
