data_image0
_chemical_formula_structural       C2FHf2NS
_chemical_formula_sum              "C2 F1 Hf2 N1 S1"
_cell_length_a       3.4259306792815583
_cell_length_b       3.42593067926729
_cell_length_c       26.173822148109632
_cell_angle_alpha    90.0
_cell_angle_beta     90.0
_cell_angle_gamma    120.00000000013777

_space_group_name_H-M_alt    "P 1"
_space_group_IT_number       1

loop_
  _space_group_symop_operation_xyz
  'x, y, z'

loop_
  _atom_site_type_symbol
  _atom_site_label
  _atom_site_symmetry_multiplicity
  _atom_site_fract_x
  _atom_site_fract_y
  _atom_site_fract_z
  _atom_site_occupancy
  C   C1        1.0  0.0  0.0  0.4344505117922615  1.0000
  C   C2        1.0  0.3333329854322145  0.6666669831836742  0.6106716744757941  1.0000
  F   F1        1.0  0.6666669847440474  0.3333329859851446  0.34385501471935437  1.0000
  Hf  Hf1       1.0  0.3333329854322145  0.6666669831836742  0.39300456271036155  1.0000
  Hf  Hf2       1.0  0.6666669847440474  0.3333329859851446  0.4828666009637683  1.0000
  N   N1        1.0  0.3333329854322145  0.6666669831836742  0.6561449852806456  1.0000
  S   S1        1.0  0.3333329854322145  0.6666669831836742  0.5460715124662905  1.0000
