data_image0
_chemical_formula_structural       CN3OSSc2
_chemical_formula_sum              "C1 N3 O1 S1 Sc2"
_cell_length_a       3.3501008064118607
_cell_length_b       3.3501008064032947
_cell_length_c       26.994128418389984
_cell_angle_alpha    90.0
_cell_angle_beta     90.0
_cell_angle_gamma    120.0000000000846

_space_group_name_H-M_alt    "P 1"
_space_group_IT_number       1

loop_
  _space_group_symop_operation_xyz
  'x, y, z'

loop_
  _atom_site_type_symbol
  _atom_site_label
  _atom_site_symmetry_multiplicity
  _atom_site_fract_x
  _atom_site_fract_y
  _atom_site_fract_z
  _atom_site_occupancy
  C   C1        1.0  0.6666669847440474  0.3333329859851446  0.3909504835480708  1.0000
  N   N1        1.0  0.0  0.0  0.5260569801752291  1.0000
  N   N2        1.0  0.3333329854322144  0.6666669831836742  0.6176058443461407  1.0000
  N   N3        1.0  0.6666669847440474  0.3333329859851446  0.4371354285184366  1.0000
  O   O1        1.0  0.3333329854322144  0.6666669831836742  0.6665941622375675  1.0000
  S   S1        1.0  0.6666669847440474  0.3333329859851446  0.3334058377624325  1.0000
  Sc  Sc1       1.0  0.3333329854322144  0.6666669831836742  0.4863689455926439  1.0000
  Sc  Sc2       1.0  0.6666669847440474  0.3333329859851446  0.5812229673301272  1.0000
