data_image0
_chemical_formula_structural       BrHf2NO
_chemical_formula_sum              "Br1 Hf2 N1 O1"
_cell_length_a       3.2780804887149704
_cell_length_b       3.278080488708189
_cell_length_c       23.511346619918594
_cell_angle_alpha    90.0
_cell_angle_beta     90.0
_cell_angle_gamma    120.00000000006844

_space_group_name_H-M_alt    "P 1"
_space_group_IT_number       1

loop_
  _space_group_symop_operation_xyz
  'x, y, z'

loop_
  _atom_site_type_symbol
  _atom_site_label
  _atom_site_symmetry_multiplicity
  _atom_site_fract_x
  _atom_site_fract_y
  _atom_site_fract_z
  _atom_site_occupancy
  Br  Br1       1.0  0.6666669847440474  0.3333329859851446  0.3827938971549713  1.0000
  Hf  Hf1       1.0  0.3333329854322144  0.6666669831836742  0.4671864878262639  1.0000
  Hf  Hf2       1.0  0.6666669847440474  0.3333329859851446  0.5765419618806009  1.0000
  N   N1        1.0  0.0  0.0  0.5237318563248501  1.0000
  O   O1        1.0  0.3333329854322144  0.6666669831836742  0.6172061028450286  1.0000
