data_image0
_chemical_formula_structural       ClNO2PTi2
_chemical_formula_sum              "Cl1 N1 O2 P1 Ti2"
_cell_length_a       3.058617162914942
_cell_length_b       3.0586171629163013
_cell_length_c       28.942049862101943
_cell_angle_alpha    90.0
_cell_angle_beta     90.0
_cell_angle_gamma    119.9999999999853

_space_group_name_H-M_alt    "P 1"
_space_group_IT_number       1

loop_
  _space_group_symop_operation_xyz
  'x, y, z'

loop_
  _atom_site_type_symbol
  _atom_site_label
  _atom_site_symmetry_multiplicity
  _atom_site_fract_x
  _atom_site_fract_y
  _atom_site_fract_z
  _atom_site_occupancy
  Cl  Cl1       1.0  0.3333329854322146  0.6666669831836742  0.6890337746330464  1.0000
  N   N1        1.0  0.0  0.0  0.4665172355500919  1.0000
  O   O1        1.0  0.3333329854322146  0.6666669831836742  0.5412245813139313  1.0000
  O   O2        1.0  0.6666669847440475  0.3333329859851447  0.3109662253669536  1.0000
  P   P1        1.0  0.6666669847440475  0.3333329859851447  0.3624177557021858  1.0000
  Ti  Ti1       1.0  0.3333329854322146  0.6666669831836742  0.42607774028961315  1.0000
  Ti  Ti2       1.0  0.6666669847440475  0.3333329859851447  0.5102370120638731  1.0000
