data_image0
_chemical_formula_structural       CCl2O2Zr2
_chemical_formula_sum              "C1 Cl2 O2 Zr2"
_cell_length_a       3.2940091327753853
_cell_length_b       3.2940091327748116
_cell_length_c       30.019459870789465
_cell_angle_alpha    90.0
_cell_angle_beta     90.0
_cell_angle_gamma    120.00000000000577

_space_group_name_H-M_alt    "P 1"
_space_group_IT_number       1

loop_
  _space_group_symop_operation_xyz
  'x, y, z'

loop_
  _atom_site_type_symbol
  _atom_site_label
  _atom_site_symmetry_multiplicity
  _atom_site_fract_x
  _atom_site_fract_y
  _atom_site_fract_z
  _atom_site_occupancy
  C   C1        1.0  0.0  0.0  0.5000000286794613  1.0000
  Cl  Cl1       1.0  0.33333298543221446  0.6666669831836743  0.7001944725608644  1.0000
  Cl  Cl2       1.0  0.6666669847440473  0.3333329859851446  0.2998055274391355  1.0000
  O   O1        1.0  0.33333298543221446  0.6666669831836743  0.577788014678335  1.0000
  O   O2        1.0  0.6666669847440473  0.3333329859851446  0.422211985321673  1.0000
  Zr  Zr1       1.0  0.33333298543221446  0.6666669831836743  0.4524154386258884  1.0000
  Zr  Zr2       1.0  0.6666669847440473  0.3333329859851446  0.5475845609460601  1.0000
