data_image0
_chemical_formula_structural       C2HNSSc2
_chemical_formula_sum              "C2 H1 N1 S1 Sc2"
_cell_length_a       3.4498978718454514
_cell_length_b       3.4498978718453444
_cell_length_c       25.918735730827496
_cell_angle_alpha    90.0
_cell_angle_beta     90.0
_cell_angle_gamma    120.00000000000104

_space_group_name_H-M_alt    "P 1"
_space_group_IT_number       1

loop_
  _space_group_symop_operation_xyz
  'x, y, z'

loop_
  _atom_site_type_symbol
  _atom_site_label
  _atom_site_symmetry_multiplicity
  _atom_site_fract_x
  _atom_site_fract_y
  _atom_site_fract_z
  _atom_site_occupancy
  C   C1        1.0  0.0  0.0  0.43144166221084385  1.0000
  C   C2        1.0  0.3333329854322145  0.6666669831836742  0.606832560576138  1.0000
  H   H1        1.0  0.6666669847440474  0.3333329859851446  0.34723915909584613  1.0000
  N   N1        1.0  0.3333329854322145  0.6666669831836742  0.6527608409041539  1.0000
  S   S1        1.0  0.3333329854322145  0.6666669831836742  0.5423772160131395  1.0000
  Sc  Sc1       1.0  0.3333329854322145  0.6666669831836742  0.3840533988852994  1.0000
  Sc  Sc2       1.0  0.6666669847440474  0.3333329859851446  0.4785943865964387  1.0000
