data_image0
_chemical_formula_structural       CN2O2PY2
_chemical_formula_sum              "C1 N2 O2 P1 Y2"
_cell_length_a       3.533911628735015
_cell_length_b       3.533911628724728
_cell_length_c       28.060884291005387
_cell_angle_alpha    90.0
_cell_angle_beta     90.0
_cell_angle_gamma    120.00000000009629

_space_group_name_H-M_alt    "P 1"
_space_group_IT_number       1

loop_
  _space_group_symop_operation_xyz
  'x, y, z'

loop_
  _atom_site_type_symbol
  _atom_site_label
  _atom_site_symmetry_multiplicity
  _atom_site_fract_x
  _atom_site_fract_y
  _atom_site_fract_z
  _atom_site_occupancy
  C   C1        1.0  0.6666669847440474  0.3333329859851446  0.3630942881293164  1.0000
  N   N1        1.0  0.0  0.0  0.5028723756751738  1.0000
  N   N2        1.0  0.6666669847440474  0.3333329859851446  0.3207311610947646  1.0000
  O   O1        1.0  0.33333298543221446  0.6666669831836742  0.6792688389052354  1.0000
  O   O2        1.0  0.6666669847440474  0.3333329859851446  0.4107118312753278  1.0000
  P   P1        1.0  0.33333298543221446  0.6666669831836742  0.6259606980244944  1.0000
  Y   Y1        1.0  0.33333298543221446  0.6666669831836742  0.4578975042428493  1.0000
  Y   Y2        1.0  0.6666669847440474  0.3333329859851446  0.5518746734113695  1.0000
