data_image0
_chemical_formula_structural       H2NO2Y2
_chemical_formula_sum              "H2 N1 O2 Y2"
_cell_length_a       3.5051855794252487
_cell_length_b       3.5051855794243143
_cell_length_c       25.256031220866095
_cell_angle_alpha    90.0
_cell_angle_beta     90.0
_cell_angle_gamma    120.00000000000882

_space_group_name_H-M_alt    "P 1"
_space_group_IT_number       1

loop_
  _space_group_symop_operation_xyz
  'x, y, z'

loop_
  _atom_site_type_symbol
  _atom_site_label
  _atom_site_symmetry_multiplicity
  _atom_site_fract_x
  _atom_site_fract_y
  _atom_site_fract_z
  _atom_site_occupancy
  H   H1        1.0  0.3333329854322145  0.6666669831836743  0.6436494744049748  1.0000
  H   H2        1.0  0.6666669847440476  0.3333329859851445  0.3563505255950253  1.0000
  N   N1        1.0  0.0  0.0  0.5000000301048397  1.0000
  O   O1        1.0  0.3333329854322145  0.6666669831836743  0.6045137901762105  1.0000
  O   O2        1.0  0.6666669847440476  0.3333329859851445  0.395486209823797  1.0000
  Y   Y1        1.0  0.3333329854322145  0.6666669831836743  0.4465944408758041  1.0000
  Y   Y2        1.0  0.6666669847440476  0.3333329859851445  0.5534055586748698  1.0000
