data_image0
_chemical_formula_structural       BrC2NSSc2
_chemical_formula_sum              "Br1 C2 N1 S1 Sc2"
_cell_length_a       3.5550579604705734
_cell_length_b       3.555057960460638
_cell_length_c       26.722193578413627
_cell_angle_alpha    90.0
_cell_angle_beta     90.0
_cell_angle_gamma    120.00000000009246

_space_group_name_H-M_alt    "P 1"
_space_group_IT_number       1

loop_
  _space_group_symop_operation_xyz
  'x, y, z'

loop_
  _atom_site_type_symbol
  _atom_site_label
  _atom_site_symmetry_multiplicity
  _atom_site_fract_x
  _atom_site_fract_y
  _atom_site_fract_z
  _atom_site_occupancy
  Br  Br1       1.0  0.6666669847440474  0.3333329859851447  0.3367986978161203  1.0000
  C   C1        1.0  0.0  0.0  0.450446832655832  1.0000
  C   C2        1.0  0.3333329854322145  0.6666669831836742  0.6186569924149818  1.0000
  N   N1        1.0  0.3333329854322145  0.6666669831836742  0.6632013021838798  1.0000
  S   S1        1.0  0.3333329854322145  0.6666669831836742  0.5560151256762159  1.0000
  Sc  Sc1       1.0  0.3333329854322145  0.6666669831836742  0.4051837379318907  1.0000
  Sc  Sc2       1.0  0.6666669847440474  0.3333329859851447  0.4955992258853814  1.0000
