data_image0
_chemical_formula_structural       BrClHf2NO
_chemical_formula_sum              "Br1 Cl1 Hf2 N1 O1"
_cell_length_a       3.4197956512533163
_cell_length_b       3.419795651246839
_cell_length_c       25.349314246109756
_cell_angle_alpha    90.0
_cell_angle_beta     90.0
_cell_angle_gamma    120.00000000006266

_space_group_name_H-M_alt    "P 1"
_space_group_IT_number       1

loop_
  _space_group_symop_operation_xyz
  'x, y, z'

loop_
  _atom_site_type_symbol
  _atom_site_label
  _atom_site_symmetry_multiplicity
  _atom_site_fract_x
  _atom_site_fract_y
  _atom_site_fract_z
  _atom_site_occupancy
  Br  Br1       1.0  0.6666669847440472  0.3333329859851446  0.3550391901185724  1.0000
  Cl  Cl1       1.0  0.3333329854322145  0.6666669831836742  0.6449608098814276  1.0000
  Hf  Hf1       1.0  0.3333329854322145  0.6666669831836742  0.43555011992964077  1.0000
  Hf  Hf2       1.0  0.6666669847440472  0.3333329859851446  0.5727035069312617  1.0000
  N   N1        1.0  0.0  0.0  0.4573030198842439  1.0000
  O   O1        1.0  0.3333329854322145  0.6666669831836742  0.5387549630122688  1.0000
