data_image0
_chemical_formula_structural       C2HNOSTi2
_chemical_formula_sum              "C2 H1 N1 O1 S1 Ti2"
_cell_length_a       3.250801209829823
_cell_length_b       3.250801209763791
_cell_length_c       26.8610740399386
_cell_angle_alpha    90.0
_cell_angle_beta     90.0
_cell_angle_gamma    120.00000000067193

_space_group_name_H-M_alt    "P 1"
_space_group_IT_number       1

loop_
  _space_group_symop_operation_xyz
  'x, y, z'

loop_
  _atom_site_type_symbol
  _atom_site_label
  _atom_site_symmetry_multiplicity
  _atom_site_fract_x
  _atom_site_fract_y
  _atom_site_fract_z
  _atom_site_occupancy
  C   C1        1.0  0.0  0.0  0.4580948663788521  1.0000
  C   C2        1.0  0.33333298543221446  0.6666669831836742  0.6206101655939484  1.0000
  H   H1        1.0  0.6666669847440474  0.3333329859851446  0.3350573393535299  1.0000
  N   N1        1.0  0.33333298543221446  0.6666669831836742  0.6649426606464701  1.0000
  O   O1        1.0  0.6666669847440474  0.3333329859851446  0.37171365065305895  1.0000
  S   S1        1.0  0.33333298543221446  0.6666669831836742  0.5582318899564283  1.0000
  Ti  Ti1       1.0  0.33333298543221446  0.6666669831836742  0.41825262728919516  1.0000
  Ti  Ti2       1.0  0.6666669847440474  0.3333329859851446  0.4996054225129709  1.0000
