data_image0
_chemical_formula_structural       C2HNO2Zr2
_chemical_formula_sum              "C2 H1 N1 O2 Zr2"
_cell_length_a       3.3682253213343984
_cell_length_b       3.3682253213249402
_cell_length_c       26.719980197532482
_cell_angle_alpha    90.0
_cell_angle_beta     90.0
_cell_angle_gamma    120.00000000009288

_space_group_name_H-M_alt    "P 1"
_space_group_IT_number       1

loop_
  _space_group_symop_operation_xyz
  'x, y, z'

loop_
  _atom_site_type_symbol
  _atom_site_label
  _atom_site_symmetry_multiplicity
  _atom_site_fract_x
  _atom_site_fract_y
  _atom_site_fract_z
  _atom_site_occupancy
  C   C1        1.0  0.0  0.0  0.5292993612950738  1.0000
  C   C2        1.0  0.6666669847440474  0.33333298598514477  0.3812855068906759  1.0000
  H   H1        1.0  0.3333329854322145  0.6666669831836742  0.6631734030689467  1.0000
  N   N1        1.0  0.6666669847440474  0.33333298598514477  0.3368265969310533  1.0000
  O   O1        1.0  0.3333329854322145  0.6666669831836742  0.6262742581932345  1.0000
  O   O2        1.0  0.6666669847440474  0.33333298598514477  0.4312234362368239  1.0000
  Zr  Zr1       1.0  0.3333329854322145  0.6666669831836742  0.4837954644500577  1.0000
  Zr  Zr2       1.0  0.6666669847440474  0.33333298598514477  0.5753536139002622  1.0000
