data_image0
_chemical_formula_structural       C3Hf2N2O2
_chemical_formula_sum              "C3 Hf2 N2 O2"
_cell_length_a       3.3432083001214803
_cell_length_b       3.343208300123313
_cell_length_c       28.159996799728134
_cell_angle_alpha    90.0
_cell_angle_beta     90.0
_cell_angle_gamma    119.99999999998188

_space_group_name_H-M_alt    "P 1"
_space_group_IT_number       1

loop_
  _space_group_symop_operation_xyz
  'x, y, z'

loop_
  _atom_site_type_symbol
  _atom_site_label
  _atom_site_symmetry_multiplicity
  _atom_site_fract_x
  _atom_site_fract_y
  _atom_site_fract_z
  _atom_site_occupancy
  C   C1        1.0  0.0  0.0  0.500000029680002  1.0000
  C   C2        1.0  0.3333329854322145  0.6666669831836741  0.6382216608736184  1.0000
  C   C3        1.0  0.6666669847440473  0.3333329859851446  0.36177833868339615  1.0000
  Hf  Hf1       1.0  0.3333329854322145  0.6666669831836741  0.458330679734826  1.0000
  Hf  Hf2       1.0  0.6666669847440473  0.3333329859851446  0.5416693198221809  1.0000
  N   N1        1.0  0.3333329854322145  0.6666669831836741  0.6803976909511975  1.0000
  N   N2        1.0  0.6666669847440473  0.3333329859851446  0.3196023090488025  1.0000
  O   O1        1.0  0.3333329854322145  0.6666669831836741  0.5905989122750341  1.0000
  O   O2        1.0  0.6666669847440473  0.3333329859851446  0.4094010877249658  1.0000
