data_image0
_chemical_formula_structural       CN2OSTi2
_chemical_formula_sum              "C1 N2 O1 S1 Ti2"
_cell_length_a       3.157530793373253
_cell_length_b       3.1575307933734016
_cell_length_c       25.716286027012373
_cell_angle_alpha    90.0
_cell_angle_beta     90.0
_cell_angle_gamma    119.99999999999844

_space_group_name_H-M_alt    "P 1"
_space_group_IT_number       1

loop_
  _space_group_symop_operation_xyz
  'x, y, z'

loop_
  _atom_site_type_symbol
  _atom_site_label
  _atom_site_symmetry_multiplicity
  _atom_site_fract_x
  _atom_site_fract_y
  _atom_site_fract_z
  _atom_site_occupancy
  C   C1        1.0  0.3333329854322145  0.6666669831836742  0.6037294796685719  1.0000
  N   N1        1.0  0.0  0.0  0.4315280320191183  1.0000
  N   N2        1.0  0.3333329854322145  0.6666669831836742  0.6500272243609981  1.0000
  O   O1        1.0  0.6666669847440474  0.3333329859851446  0.3499727756390018  1.0000
  S   S1        1.0  0.3333329854322145  0.6666669831836742  0.5382254923269716  1.0000
  Ti  Ti1       1.0  0.3333329854322145  0.6666669831836742  0.38415725907754567  1.0000
  Ti  Ti2       1.0  0.6666669847440474  0.3333329859851446  0.4770359823475391  1.0000
