data_image0
_chemical_formula_structural       CClO2Ti2
_chemical_formula_sum              "C1 Cl1 O2 Ti2"
_cell_length_a       3.0613948218035882
_cell_length_b       3.061394821795958
_cell_length_c       27.828263994411614
_cell_angle_alpha    90.0
_cell_angle_beta     90.0
_cell_angle_gamma    120.00000000008245

_space_group_name_H-M_alt    "P 1"
_space_group_IT_number       1

loop_
  _space_group_symop_operation_xyz
  'x, y, z'

loop_
  _atom_site_type_symbol
  _atom_site_label
  _atom_site_symmetry_multiplicity
  _atom_site_fract_x
  _atom_site_fract_y
  _atom_site_fract_z
  _atom_site_occupancy
  C   C1        1.0  0.0  0.0  0.4025649363398296  1.0000
  Cl  Cl1       1.0  0.3333329854322145  0.6666669831836742  0.6765878028968192  1.0000
  O   O1        1.0  0.3333329854322145  0.6666669831836742  0.4816344176289631  1.0000
  O   O2        1.0  0.6666669847440474  0.3333329859851446  0.3234121971031808  1.0000
  Ti  Ti1       1.0  0.3333329854322145  0.6666669831836742  0.355549257145334  1.0000
  Ti  Ti2       1.0  0.6666669847440474  0.3333329859851446  0.4497710719212333  1.0000
