data_image0
_chemical_formula_structural       CN3OSc2
_chemical_formula_sum              "C1 N3 O1 Sc2"
_cell_length_a       3.327442443835077
_cell_length_b       3.327442443832435
_cell_length_c       25.544249025373052
_cell_angle_alpha    90.0
_cell_angle_beta     90.0
_cell_angle_gamma    120.00000000002628

_space_group_name_H-M_alt    "P 1"
_space_group_IT_number       1

loop_
  _space_group_symop_operation_xyz
  'x, y, z'

loop_
  _atom_site_type_symbol
  _atom_site_label
  _atom_site_symmetry_multiplicity
  _atom_site_fract_x
  _atom_site_fract_y
  _atom_site_fract_z
  _atom_site_occupancy
  C   C1        1.0  0.3333329854322145  0.6666669831836742  0.6007794475872377  1.0000
  N   N1        1.0  0.0  0.0  0.501138346082155  1.0000
  N   N2        1.0  0.3333329854322145  0.6666669831836742  0.6476702058823373  1.0000
  N   N3        1.0  0.6666669847440476  0.3333329859851446  0.40400440652606406  1.0000
  O   O1        1.0  0.6666669847440476  0.3333329859851446  0.3523297941176631  1.0000
  Sc  Sc1       1.0  0.3333329854322145  0.6666669831836742  0.44303550156495425  1.0000
  Sc  Sc2       1.0  0.6666669847440476  0.3333329859851446  0.5430878226643728  1.0000
