data_image0
_chemical_formula_structural       ClN2OZr2
_chemical_formula_sum              "Cl1 N2 O1 Zr2"
_cell_length_a       3.385506370232818
_cell_length_b       3.3855063702258716
_cell_length_c       24.743877011504345
_cell_angle_alpha    90.0
_cell_angle_beta     90.0
_cell_angle_gamma    120.00000000006787

_space_group_name_H-M_alt    "P 1"
_space_group_IT_number       1

loop_
  _space_group_symop_operation_xyz
  'x, y, z'

loop_
  _atom_site_type_symbol
  _atom_site_label
  _atom_site_symmetry_multiplicity
  _atom_site_fract_x
  _atom_site_fract_y
  _atom_site_fract_z
  _atom_site_occupancy
  Cl  Cl1       1.0  0.6666669847440474  0.33333298598514444  0.3637263471611812  1.0000
  N   N1        1.0  0.0  0.0  0.4837083373440593  1.0000
  N   N2        1.0  0.3333329854322145  0.6666669831836741  0.5829706752346667  1.0000
  O   O1        1.0  0.3333329854322145  0.6666669831836741  0.6362736528388189  1.0000
  Zr  Zr1       1.0  0.3333329854322145  0.6666669831836741  0.4376201015989364  1.0000
  Zr  Zr2       1.0  0.6666669847440474  0.33333298598514444  0.5375403486594731  1.0000
