data_image0
_chemical_formula_structural       C2NOPSc2
_chemical_formula_sum              "C2 N1 O1 P1 Sc2"
_cell_length_a       3.380788995757606
_cell_length_b       3.3807889957492425
_cell_length_c       26.61073628194141
_cell_angle_alpha    90.0
_cell_angle_beta     90.0
_cell_angle_gamma    120.00000000008184

_space_group_name_H-M_alt    "P 1"
_space_group_IT_number       1

loop_
  _space_group_symop_operation_xyz
  'x, y, z'

loop_
  _atom_site_type_symbol
  _atom_site_label
  _atom_site_symmetry_multiplicity
  _atom_site_fract_x
  _atom_site_fract_y
  _atom_site_fract_z
  _atom_site_occupancy
  C   C1        1.0  0.0  0.0  0.5156164457490748  1.0000
  C   C2        1.0  0.3333329854322145  0.6666669831836742  0.6167330251832133  1.0000
  N   N1        1.0  0.3333329854322145  0.6666669831836742  0.6617906432710174  1.0000
  O   O1        1.0  0.6666669847440474  0.3333329859851446  0.3382093567289826  1.0000
  P   P1        1.0  0.6666669847440474  0.3333329859851446  0.394371967604554  1.0000
  Sc  Sc1       1.0  0.3333329854322145  0.6666669831836742  0.47061990768760753  1.0000
  Sc  Sc2       1.0  0.6666669847440474  0.3333329859851446  0.5630307643569805  1.0000
