data_image0
_chemical_formula_structural       C2N2OSc2
_chemical_formula_sum              "C2 N2 O1 Sc2"
_cell_length_a       3.400541265628502
_cell_length_b       3.4005412656204506
_cell_length_c       25.657371740904566
_cell_angle_alpha    90.0
_cell_angle_beta     90.0
_cell_angle_gamma    120.00000000007833

_space_group_name_H-M_alt    "P 1"
_space_group_IT_number       1

loop_
  _space_group_symop_operation_xyz
  'x, y, z'

loop_
  _atom_site_type_symbol
  _atom_site_label
  _atom_site_symmetry_multiplicity
  _atom_site_fract_x
  _atom_site_fract_y
  _atom_site_fract_z
  _atom_site_occupancy
  C   C1        1.0  0.0  0.0  0.49876826897100224  1.0000
  C   C2        1.0  0.3333329854322145  0.6666669831836742  0.6024984792596739  1.0000
  N   N1        1.0  0.3333329854322145  0.6666669831836742  0.6492236192044704  1.0000
  N   N2        1.0  0.6666669847440473  0.3333329859851446  0.4009865488838694  1.0000
  O   O1        1.0  0.6666669847440473  0.3333329859851446  0.3507763807955296  1.0000
  Sc  Sc1       1.0  0.3333329854322145  0.6666669831836742  0.44929136876142123  1.0000
  Sc  Sc2       1.0  0.6666669847440473  0.3333329859851446  0.546874904454763  1.0000
