data_image0
_chemical_formula_structural       CHf2N2OPS
_chemical_formula_sum              "C1 Hf2 N2 O1 P1 S1"
_cell_length_a       3.276545615964263
_cell_length_b       3.2765456159207487
_cell_length_c       28.041246680064198
_cell_angle_alpha    90.0
_cell_angle_beta     90.0
_cell_angle_gamma    120.00000000043931

_space_group_name_H-M_alt    "P 1"
_space_group_IT_number       1

loop_
  _space_group_symop_operation_xyz
  'x, y, z'

loop_
  _atom_site_type_symbol
  _atom_site_label
  _atom_site_symmetry_multiplicity
  _atom_site_fract_x
  _atom_site_fract_y
  _atom_site_fract_z
  _atom_site_occupancy
  C   C1        1.0  0.3333329854322145  0.6666669831836741  0.6239153645393309  1.0000
  Hf  Hf1       1.0  0.3333329854322145  0.6666669831836741  0.44267876341550666  1.0000
  Hf  Hf2       1.0  0.6666669847440474  0.33333298598514444  0.5311730527932287  1.0000
  N   N1        1.0  0.0  0.0  0.4883180536548208  1.0000
  N   N2        1.0  0.3333329854322145  0.6666669831836741  0.5784584388986639  1.0000
  O   O1        1.0  0.6666669847440474  0.33333298598514444  0.3209557728543685  1.0000
  P   P1        1.0  0.6666669847440474  0.33333298598514444  0.3742703223642588  1.0000
  S   S1        1.0  0.3333329854322145  0.6666669831836741  0.6790442271456315  1.0000
