data_image0
_chemical_formula_structural       C2HHf2N
_chemical_formula_sum              "C2 H1 Hf2 N1"
_cell_length_a       3.301984518918593
_cell_length_b       3.301984518911948
_cell_length_c       24.137217325382338
_cell_angle_alpha    90.0
_cell_angle_beta     90.0
_cell_angle_gamma    120.00000000006658

_space_group_name_H-M_alt    "P 1"
_space_group_IT_number       1

loop_
  _space_group_symop_operation_xyz
  'x, y, z'

loop_
  _atom_site_type_symbol
  _atom_site_label
  _atom_site_symmetry_multiplicity
  _atom_site_fract_x
  _atom_site_fract_y
  _atom_site_fract_z
  _atom_site_occupancy
  C   C1        1.0  0.0  0.0  0.46502389183775067  1.0000
  C   C2        1.0  0.3333329854322145  0.6666669831836742  0.577186431082279  1.0000
  H   H1        1.0  0.6666669847440474  0.3333329859851446  0.3728681678039056  1.0000
  Hf  Hf1       1.0  0.3333329854322145  0.6666669831836742  0.4140278495660759  1.0000
  Hf  Hf2       1.0  0.6666669847440474  0.3333329859851446  0.5158895916961945  1.0000
  N   N1        1.0  0.3333329854322145  0.6666669831836742  0.6271318321960944  1.0000
