data_image0
_chemical_formula_structural       CBrHLa2
_chemical_formula_sum              "C1 Br1 H1 La2"
_cell_length_a       3.9721452268547575
_cell_length_b       3.9721452268617448
_cell_length_c       22.09217075827904
_cell_angle_alpha    89.99999999999999
_cell_angle_beta     89.99999999999999
_cell_angle_gamma    119.99999999994178

_space_group_name_H-M_alt    "P 1"
_space_group_IT_number       1

loop_
  _space_group_symop_operation_xyz
  'x, y, z'

loop_
  _atom_site_type_symbol
  _atom_site_label
  _atom_site_symmetry_multiplicity
  _atom_site_fract_x
  _atom_site_fract_y
  _atom_site_fract_z
  _atom_site_occupancy
  C   C1        1.0  6.668572667455434e-34  1.3778328858017042e-32  0.481172239753361  1.0000
  Br  Br1       1.0  0.3333329854322145  0.6666669831836742  0.6391949465607127  1.0000
  H   H1        1.0  0.6666669847440473  0.33333298598514455  0.3704962595758409  1.0000
  La  La1       1.0  0.3333329854322145  0.6666669831836742  0.4134565686093912  1.0000
  La  La2       1.0  0.6666669847440473  0.33333298598514455  0.546724765761553  1.0000
