data_image0
_chemical_formula_structural       BrC2NZr2
_chemical_formula_sum              "Br1 C2 N1 Zr2"
_cell_length_a       3.4564634660389317
_cell_length_b       3.4564634660371554
_cell_length_c       25.081229370651336
_cell_angle_alpha    90.0
_cell_angle_beta     90.0
_cell_angle_gamma    120.00000000001701

_space_group_name_H-M_alt    "P 1"
_space_group_IT_number       1

loop_
  _space_group_symop_operation_xyz
  'x, y, z'

loop_
  _atom_site_type_symbol
  _atom_site_label
  _atom_site_symmetry_multiplicity
  _atom_site_fract_x
  _atom_site_fract_y
  _atom_site_fract_z
  _atom_site_occupancy
  Br  Br1       1.0  0.6666669847440474  0.3333329859851446  0.3588340853232379  1.0000
  C   C1        1.0  0.0  0.0  0.4852384278143696  1.0000
  C   C2        1.0  0.3333329854322145  0.6666669831836742  0.5931404013749524  1.0000
  N   N1        1.0  0.3333329854322145  0.6666669831836742  0.6411659146767621  1.0000
  Zr  Zr1       1.0  0.3333329854322145  0.6666669831836742  0.4372826861056223  1.0000
  Zr  Zr2       1.0  0.6666669847440474  0.3333329859851446  0.5345940987246964  1.0000
