data_image0
_chemical_formula_structural       C2NO2PY2
_chemical_formula_sum              "C2 N1 O2 P1 Y2"
_cell_length_a       3.625366600998802
_cell_length_b       3.6253666010304735
_cell_length_c       28.196224809235574
_cell_angle_alpha    90.0
_cell_angle_beta     90.0
_cell_angle_gamma    119.99999999971102

_space_group_name_H-M_alt    "P 1"
_space_group_IT_number       1

loop_
  _space_group_symop_operation_xyz
  'x, y, z'

loop_
  _atom_site_type_symbol
  _atom_site_label
  _atom_site_symmetry_multiplicity
  _atom_site_fract_x
  _atom_site_fract_y
  _atom_site_fract_z
  _atom_site_occupancy
  C   C1        1.0  0.0  0.0  0.4951247759016655  1.0000
  C   C2        1.0  0.33333298543221457  0.6666669831836742  0.6380581591991148  1.0000
  N   N1        1.0  0.33333298543221457  0.6666669831836742  0.5938279804229093  1.0000
  O   O1        1.0  0.33333298543221457  0.6666669831836742  0.6808083329988174  1.0000
  O   O2        1.0  0.6666669847440476  0.3333329859851446  0.31919166700118246  1.0000
  P   P1        1.0  0.6666669847440476  0.3333329859851446  0.3722955454561093  1.0000
  Y   Y1        1.0  0.33333298543221457  0.6666669831836742  0.44772869747408095  1.0000
  Y   Y2        1.0  0.6666669847440476  0.3333329859851446  0.5439479935278634  1.0000
