data_image0
_chemical_formula_structural       C2N3OSZr2
_chemical_formula_sum              "C2 N3 O1 S1 Zr2"
_cell_length_a       3.457822453775459
_cell_length_b       3.4578224537736526
_cell_length_c       28.73739084263623
_cell_angle_alpha    90.0
_cell_angle_beta     90.0
_cell_angle_gamma    120.0000000000173

_space_group_name_H-M_alt    "P 1"
_space_group_IT_number       1

loop_
  _space_group_symop_operation_xyz
  'x, y, z'

loop_
  _atom_site_type_symbol
  _atom_site_label
  _atom_site_symmetry_multiplicity
  _atom_site_fract_x
  _atom_site_fract_y
  _atom_site_fract_z
  _atom_site_occupancy
  C   C1        1.0  0.3333329854322145  0.6666669831836742  0.6453833924055521  1.0000
  C   C2        1.0  0.6666669847440475  0.3333329859851446  0.354535231424696  1.0000
  N   N1        1.0  0.0  0.0  0.48360729098385263  1.0000
  N   N2        1.0  0.3333329854322145  0.6666669831836742  0.6868191670815448  1.0000
  N   N3        1.0  0.6666669847440475  0.3333329859851446  0.3131808329184551  1.0000
  O   O1        1.0  0.6666669847440475  0.3333329859851446  0.40104335910556  1.0000
  S   S1        1.0  0.3333329854322145  0.6666669831836742  0.5866967049059235  1.0000
  Zr  Zr1       1.0  0.3333329854322145  0.6666669831836742  0.44774620942642446  1.0000
  Zr  Zr2       1.0  0.6666669847440475  0.3333329859851446  0.5293156560526028  1.0000
