data_image0
_chemical_formula_structural       C2ClNOTi2
_chemical_formula_sum              "C2 Cl1 N1 O1 Ti2"
_cell_length_a       3.0946068964738
_cell_length_b       3.0946068964737363
_cell_length_c       28.609094185528118
_cell_angle_alpha    90.0
_cell_angle_beta     90.0
_cell_angle_gamma    120.00000000000068

_space_group_name_H-M_alt    "P 1"
_space_group_IT_number       1

loop_
  _space_group_symop_operation_xyz
  'x, y, z'

loop_
  _atom_site_type_symbol
  _atom_site_label
  _atom_site_symmetry_multiplicity
  _atom_site_fract_x
  _atom_site_fract_y
  _atom_site_fract_z
  _atom_site_occupancy
  C   C1        1.0  0.0  0.0  0.5536960386722986  1.0000
  C   C2        1.0  0.3333329854322145  0.6666669831836742  0.64328366083588  1.0000
  Cl  Cl1       1.0  0.6666669847440474  0.3333329859851446  0.3145852833240923  1.0000
  N   N1        1.0  0.3333329854322145  0.6666669831836742  0.6854147166759077  1.0000
  O   O1        1.0  0.6666669847440474  0.3333329859851446  0.4758644202113417  1.0000
  Ti  Ti1       1.0  0.3333329854322145  0.6666669831836742  0.5068495988809022  1.0000
  Ti  Ti2       1.0  0.6666669847440474  0.3333329859851446  0.5939822149557031  1.0000
