data_image0
_chemical_formula_structural       ClNOPZr2
_chemical_formula_sum              "Cl1 N1 O1 P1 Zr2"
_cell_length_a       3.3604036484072473
_cell_length_b       3.3604036483934885
_cell_length_c       25.691012115809716
_cell_angle_alpha    90.0
_cell_angle_beta     90.0
_cell_angle_gamma    120.00000000013543

_space_group_name_H-M_alt    "P 1"
_space_group_IT_number       1

loop_
  _space_group_symop_operation_xyz
  'x, y, z'

loop_
  _atom_site_type_symbol
  _atom_site_label
  _atom_site_symmetry_multiplicity
  _atom_site_fract_x
  _atom_site_fract_y
  _atom_site_fract_z
  _atom_site_occupancy
  Cl  Cl1       1.0  0.6666669847440474  0.3333329859851446  0.3503170665067565  1.0000
  N   N1        1.0  0.0  0.0  0.46665832793832274  1.0000
  O   O1        1.0  0.33333298543221457  0.6666669831836742  0.6496829334932435  1.0000
  P   P1        1.0  0.33333298543221457  0.6666669831836742  0.5914989130537225  1.0000
  Zr  Zr1       1.0  0.33333298543221457  0.6666669831836742  0.420904952715615  1.0000
  Zr  Zr2       1.0  0.6666669847440474  0.3333329859851446  0.5153587386313998  1.0000
