data_image0
_chemical_formula_structural       C3N2OSZr2
_chemical_formula_sum              "C3 N2 O1 S1 Zr2"
_cell_length_a       3.4111929485243846
_cell_length_b       3.4111929484953336
_cell_length_c       28.55010003250275
_cell_angle_alpha    90.0
_cell_angle_beta     90.0
_cell_angle_gamma    120.00000000028173

_space_group_name_H-M_alt    "P 1"
_space_group_IT_number       1

loop_
  _space_group_symop_operation_xyz
  'x, y, z'

loop_
  _atom_site_type_symbol
  _atom_site_label
  _atom_site_symmetry_multiplicity
  _atom_site_fract_x
  _atom_site_fract_y
  _atom_site_fract_z
  _atom_site_occupancy
  C   C1        1.0  0.0  0.0  0.4938862716991619  1.0000
  C   C2        1.0  0.3333329854322145  0.6666669831836742  0.6303567292051557  1.0000
  C   C3        1.0  0.6666669847440474  0.3333329859851446  0.3568551326829466  1.0000
  N   N1        1.0  0.3333329854322145  0.6666669831836742  0.5864618657709331  1.0000
  N   N2        1.0  0.6666669847440474  0.3333329859851446  0.315235322809867  1.0000
  O   O1        1.0  0.6666669847440474  0.3333329859851446  0.4035926504197048  1.0000
  S   S1        1.0  0.3333329854322145  0.6666669831836742  0.684764677190133  1.0000
  Zr  Zr1       1.0  0.3333329854322145  0.6666669831836742  0.4521196100918348  1.0000
  Zr  Zr2       1.0  0.6666669847440474  0.3333329859851446  0.5377234253838304  1.0000
