data_image0
_chemical_formula_structural       BrNOTi2
_chemical_formula_sum              "Br1 N1 O1 Ti2"
_cell_length_a       3.1455964670123886
_cell_length_b       3.1455964670118
_cell_length_c       23.121846753777458
_cell_angle_alpha    90.0
_cell_angle_beta     90.0
_cell_angle_gamma    120.0000000000062

_space_group_name_H-M_alt    "P 1"
_space_group_IT_number       1

loop_
  _space_group_symop_operation_xyz
  'x, y, z'

loop_
  _atom_site_type_symbol
  _atom_site_label
  _atom_site_symmetry_multiplicity
  _atom_site_fract_x
  _atom_site_fract_y
  _atom_site_fract_z
  _atom_site_occupancy
  Br  Br1       1.0  0.6666669847440474  0.3333329859851446  0.3892422649384463  1.0000
  N   N1        1.0  0.0  0.0  0.5182083932092318  1.0000
  O   O1        1.0  0.3333329854322146  0.6666669831836742  0.6107577350615536  1.0000
  Ti  Ti1       1.0  0.3333329854322146  0.6666669831836742  0.4706774135042426  1.0000
  Ti  Ti2       1.0  0.6666669847440474  0.3333329859851446  0.5722202400888508  1.0000
