data_image0
_chemical_formula_structural       C3N2S2Y2
_chemical_formula_sum              "C3 N2 S2 Y2"
_cell_length_a       3.7534923953186285
_cell_length_b       3.75349239535819
_cell_length_c       29.440887548920447
_cell_angle_alpha    90.0
_cell_angle_beta     90.0
_cell_angle_gamma    119.99999999965135

_space_group_name_H-M_alt    "P 1"
_space_group_IT_number       1

loop_
  _space_group_symop_operation_xyz
  'x, y, z'

loop_
  _atom_site_type_symbol
  _atom_site_label
  _atom_site_symmetry_multiplicity
  _atom_site_fract_x
  _atom_site_fract_y
  _atom_site_fract_z
  _atom_site_occupancy
  C   C1        1.0  0.0  0.0  0.5075249293935498  1.0000
  C   C2        1.0  0.33333298543221457  0.6666669831836742  0.6412989999250687  1.0000
  C   C3        1.0  0.6666669847440475  0.3333329859851446  0.3461226235569274  1.0000
  N   N1        1.0  0.33333298543221457  0.6666669831836742  0.5988752508416919  1.0000
  N   N2        1.0  0.6666669847440475  0.3333329859851446  0.30569730566190134  1.0000
  S   S1        1.0  0.33333298543221457  0.6666669831836742  0.6943026943380985  1.0000
  S   S2        1.0  0.6666669847440475  0.3333329859851446  0.4029685359347543  1.0000
  Y   Y1        1.0  0.33333298543221457  0.6666669831836742  0.46242327762753194  1.0000
  Y   Y2        1.0  0.6666669847440475  0.3333329859851446  0.5537387875589626  1.0000
