data_image0
_chemical_formula_structural       C2N3Ti2
_chemical_formula_sum              "C2 N3 Ti2"
_cell_length_a       3.1708646473476696
_cell_length_b       3.170864647339212
_cell_length_c       25.359173581324598
_cell_angle_alpha    90.0
_cell_angle_beta     90.0
_cell_angle_gamma    120.00000000008824

_space_group_name_H-M_alt    "P 1"
_space_group_IT_number       1

loop_
  _space_group_symop_operation_xyz
  'x, y, z'

loop_
  _atom_site_type_symbol
  _atom_site_label
  _atom_site_symmetry_multiplicity
  _atom_site_fract_x
  _atom_site_fract_y
  _atom_site_fract_z
  _atom_site_occupancy
  C   C1        1.0  0.3333329854322146  0.6666669831836742  0.5976634871046455  1.0000
  C   C2        1.0  0.6666669847440473  0.3333329859851446  0.40233651344219273  1.0000
  N   N1        1.0  0.0  0.0  0.500000036911515  1.0000
  N   N2        1.0  0.3333329854322146  0.6666669831836742  0.6450988447577835  1.0000
  N   N3        1.0  0.6666669847440473  0.3333329859851446  0.3549011552422167  1.0000
  Ti  Ti1       1.0  0.3333329854322146  0.6666669831836742  0.4581288621708173  1.0000
  Ti  Ti2       1.0  0.6666669847440473  0.3333329859851446  0.5418711378291736  1.0000
