data_image0
_chemical_formula_structural       CFN2OSc2
_chemical_formula_sum              "C1 F1 N2 O1 Sc2"
_cell_length_a       3.3189272937835894
_cell_length_b       3.3189272937783483
_cell_length_c       25.37053794938071
_cell_angle_alpha    90.0
_cell_angle_beta     90.0
_cell_angle_gamma    120.00000000005225

_space_group_name_H-M_alt    "P 1"
_space_group_IT_number       1

loop_
  _space_group_symop_operation_xyz
  'x, y, z'

loop_
  _atom_site_type_symbol
  _atom_site_label
  _atom_site_symmetry_multiplicity
  _atom_site_fract_x
  _atom_site_fract_y
  _atom_site_fract_z
  _atom_site_occupancy
  C   C1        1.0  0.3333329854322145  0.6666669831836742  0.5977762967148985  1.0000
  F   F1        1.0  0.6666669847440474  0.3333329859851446  0.35474218236746874  1.0000
  N   N1        1.0  0.0  0.0  0.4472390213380669  1.0000
  N   N2        1.0  0.3333329854322145  0.6666669831836742  0.5486562196082405  1.0000
  O   O1        1.0  0.3333329854322145  0.6666669831836742  0.6452578176325312  1.0000
  Sc  Sc1       1.0  0.3333329854322145  0.6666669831836742  0.4005138854514688  1.0000
  Sc  Sc2       1.0  0.6666669847440474  0.3333329859851446  0.4959778980043792  1.0000
