data_image0
_chemical_formula_structural       CFHf2O
_chemical_formula_sum              "C1 F1 Hf2 O1"
_cell_length_a       3.3061423010527964
_cell_length_b       3.3061423010492526
_cell_length_c       22.844210749105752
_cell_angle_alpha    90.0
_cell_angle_beta     90.0
_cell_angle_gamma    120.00000000003546

_space_group_name_H-M_alt    "P 1"
_space_group_IT_number       1

loop_
  _space_group_symop_operation_xyz
  'x, y, z'

loop_
  _atom_site_type_symbol
  _atom_site_label
  _atom_site_symmetry_multiplicity
  _atom_site_fract_x
  _atom_site_fract_y
  _atom_site_fract_z
  _atom_site_occupancy
  C   C1        1.0  0.0  0.0  0.5032285518298372  1.0000
  F   F1        1.0  0.6666669847440473  0.3333329859851446  0.3939729018807231  1.0000
  Hf  Hf1       1.0  0.3333329854322145  0.6666669831836742  0.4512654521830978  1.0000
  Hf  Hf2       1.0  0.6666669847440473  0.3333329859851446  0.564705753999902  1.0000
  O   O1        1.0  0.3333329854322145  0.6666669831836742  0.6060270981192768  1.0000
