data_image0
_chemical_formula_structural       C3N2O2Y2
_chemical_formula_sum              "C3 N2 O2 Y2"
_cell_length_a       3.6497476253328864
_cell_length_b       3.649747625332256
_cell_length_c       28.374260590830776
_cell_angle_alpha    90.0
_cell_angle_beta     90.0
_cell_angle_gamma    120.00000000000571

_space_group_name_H-M_alt    "P 1"
_space_group_IT_number       1

loop_
  _space_group_symop_operation_xyz
  'x, y, z'

loop_
  _atom_site_type_symbol
  _atom_site_label
  _atom_site_symmetry_multiplicity
  _atom_site_fract_x
  _atom_site_fract_y
  _atom_site_fract_z
  _atom_site_occupancy
  C   C1        1.0  0.0  0.0  0.49878598537182844  1.0000
  C   C2        1.0  0.33333298543221446  0.6666669831836742  0.6403320171536152  1.0000
  C   C3        1.0  0.6666669847440474  0.3333329859851446  0.3591079441179715  1.0000
  N   N1        1.0  0.33333298543221446  0.6666669831836742  0.5963638257379951  1.0000
  N   N2        1.0  0.6666669847440474  0.3333329859851446  0.31718888219798674  1.0000
  O   O1        1.0  0.33333298543221446  0.6666669831836742  0.6828111178020131  1.0000
  O   O2        1.0  0.6666669847440474  0.3333329859851446  0.4061171738005707  1.0000
  Y   Y1        1.0  0.33333298543221446  0.6666669831836742  0.4507930779478673  1.0000
  Y   Y2        1.0  0.6666669847440474  0.3333329859851446  0.5470692550634452  1.0000
