data_image0
_chemical_formula_structural       C3N2O2Sc2
_chemical_formula_sum              "C3 N2 O2 Sc2"
_cell_length_a       3.3616412371848328
_cell_length_b       3.3616412371558453
_cell_length_c       28.00282565588247
_cell_angle_alpha    90.0
_cell_angle_beta     90.0
_cell_angle_gamma    120.00000000028525

_space_group_name_H-M_alt    "P 1"
_space_group_IT_number       1

loop_
  _space_group_symop_operation_xyz
  'x, y, z'

loop_
  _atom_site_type_symbol
  _atom_site_label
  _atom_site_symmetry_multiplicity
  _atom_site_fract_x
  _atom_site_fract_y
  _atom_site_fract_z
  _atom_site_occupancy
  C   C1        1.0  0.0  0.0  0.5000000295201676  1.0000
  C   C2        1.0  0.3333329854322145  0.6666669831836742  0.6361667769919458  1.0000
  C   C3        1.0  0.6666669847440474  0.3333329859851446  0.36383322256744693  1.0000
  N   N1        1.0  0.3333329854322145  0.6666669831836742  0.6786038626745013  1.0000
  N   N2        1.0  0.6666669847440474  0.3333329859851446  0.32139613732549877  1.0000
  O   O1        1.0  0.3333329854322145  0.6666669831836742  0.5883927636037697  1.0000
  O   O2        1.0  0.6666669847440474  0.3333329859851446  0.4116072363962302  1.0000
  Sc  Sc1       1.0  0.3333329854322145  0.6666669831836742  0.4552619524426498  1.0000
  Sc  Sc2       1.0  0.6666669847440474  0.3333329859851446  0.5447380471167429  1.0000
