data_image0
_chemical_formula_structural       CH2OZr2
_chemical_formula_sum              "C1 H2 O1 Zr2"
_cell_length_a       3.3265926195915316
_cell_length_b       3.3265926195812905
_cell_length_c       23.86741517874317
_cell_angle_alpha    90.0
_cell_angle_beta     90.0
_cell_angle_gamma    120.00000000010185

_space_group_name_H-M_alt    "P 1"
_space_group_IT_number       1

loop_
  _space_group_symop_operation_xyz
  'x, y, z'

loop_
  _atom_site_type_symbol
  _atom_site_label
  _atom_site_symmetry_multiplicity
  _atom_site_fract_x
  _atom_site_fract_y
  _atom_site_fract_z
  _atom_site_occupancy
  C   C1        1.0  0.0  0.0  0.5266733215572217  1.0000
  H   H1        1.0  0.3333329854322144  0.6666669831836742  0.6229168541042688  1.0000
  H   H2        1.0  0.6666669847440474  0.3333329859851446  0.3770831458957312  1.0000
  O   O1        1.0  0.6666669847440474  0.3333329859851446  0.4184078266887647  1.0000
  Zr  Zr1       1.0  0.3333329854322144  0.6666669831836742  0.475301981118611  1.0000
  Zr  Zr2       1.0  0.6666669847440474  0.3333329859851446  0.580397745091598  1.0000
