data_image0
_chemical_formula_structural       CHN2OY2
_chemical_formula_sum              "C1 H1 N2 O1 Y2"
_cell_length_a       3.517052828222035
_cell_length_b       3.517052828224737
_cell_length_c       25.596608612567678
_cell_angle_alpha    90.0
_cell_angle_beta     90.0
_cell_angle_gamma    119.99999999997459

_space_group_name_H-M_alt    "P 1"
_space_group_IT_number       1

loop_
  _space_group_symop_operation_xyz
  'x, y, z'

loop_
  _atom_site_type_symbol
  _atom_site_label
  _atom_site_symmetry_multiplicity
  _atom_site_fract_x
  _atom_site_fract_y
  _atom_site_fract_z
  _atom_site_occupancy
  C   C1        1.0  0.33333298543221446  0.6666669831836742  0.6012898243225578  1.0000
  H   H1        1.0  0.6666669847440474  0.3333329859851446  0.3516090797896206  1.0000
  N   N1        1.0  0.0  0.0  0.4453683292545883  1.0000
  N   N2        1.0  0.33333298543221446  0.6666669831836742  0.5526578856983642  1.0000
  O   O1        1.0  0.33333298543221446  0.6666669831836742  0.6483909202103794  1.0000
  Y   Y1        1.0  0.33333298543221446  0.6666669831836742  0.3914841813255892  1.0000
  Y   Y2        1.0  0.6666669847440474  0.3333329859851446  0.4958316851357995  1.0000
