data_image0
_chemical_formula_structural       C3N2Sc2
_chemical_formula_sum              "C3 N2 Sc2"
_cell_length_a       3.4132276385668274
_cell_length_b       3.4132276385649294
_cell_length_c       25.722565815096626
_cell_angle_alpha    90.0
_cell_angle_beta     90.0
_cell_angle_gamma    120.00000000001839

_space_group_name_H-M_alt    "P 1"
_space_group_IT_number       1

loop_
  _space_group_symop_operation_xyz
  'x, y, z'

loop_
  _atom_site_type_symbol
  _atom_site_label
  _atom_site_symmetry_multiplicity
  _atom_site_fract_x
  _atom_site_fract_y
  _atom_site_fract_z
  _atom_site_occupancy
  C   C1        1.0  0.0  0.0  0.5000000314056349  1.0000
  C   C2        1.0  0.3333329854322144  0.6666669831836742  0.6035021851147302  1.0000
  C   C3        1.0  0.6666669847440473  0.33333298598514444  0.3964978153505384  1.0000
  N   N1        1.0  0.3333329854322144  0.6666669831836742  0.6501126650935467  1.0000
  N   N2        1.0  0.6666669847440473  0.33333298598514444  0.3498873349064533  1.0000
  Sc  Sc1       1.0  0.3333329854322144  0.6666669831836742  0.4516834116972311  1.0000
  Sc  Sc2       1.0  0.6666669847440473  0.33333298598514444  0.5483165883027606  1.0000
