data_image0
_chemical_formula_structural       H2NOY2
_chemical_formula_sum              "H2 N1 O1 Y2"
_cell_length_a       3.4974681381481045
_cell_length_b       3.4974681381474633
_cell_length_c       24.036305917090456
_cell_angle_alpha    90.0
_cell_angle_beta     90.0
_cell_angle_gamma    120.00000000000607

_space_group_name_H-M_alt    "P 1"
_space_group_IT_number       1

loop_
  _space_group_symop_operation_xyz
  'x, y, z'

loop_
  _atom_site_type_symbol
  _atom_site_label
  _atom_site_symmetry_multiplicity
  _atom_site_fract_x
  _atom_site_fract_y
  _atom_site_fract_z
  _atom_site_occupancy
  H   H1        1.0  0.3333329854322145  0.6666669831836742  0.6255664230999507  1.0000
  H   H2        1.0  0.6666669847440474  0.3333329859851447  0.3744335769000493  1.0000
  N   N1        1.0  0.0  0.0  0.5242562463113597  1.0000
  O   O1        1.0  0.6666669847440474  0.3333329859851447  0.41544752777695115  1.0000
  Y   Y1        1.0  0.3333329854322145  0.6666669831836742  0.4703292465954685  1.0000
  Y   Y2        1.0  0.6666669847440474  0.3333329859851447  0.582305055949864  1.0000
