data_image0
_chemical_formula_structural       H2NY2
_chemical_formula_sum              "H2 N1 Y2"
_cell_length_a       3.494142004679864
_cell_length_b       3.494142004677983
_cell_length_c       22.813923564645428
_cell_angle_alpha    90.0
_cell_angle_beta     90.0
_cell_angle_gamma    120.0000000000178

_space_group_name_H-M_alt    "P 1"
_space_group_IT_number       1

loop_
  _space_group_symop_operation_xyz
  'x, y, z'

loop_
  _atom_site_type_symbol
  _atom_site_label
  _atom_site_symmetry_multiplicity
  _atom_site_fract_x
  _atom_site_fract_y
  _atom_site_fract_z
  _atom_site_occupancy
  H   H1        1.0  0.3333329854322145  0.6666669831836741  0.6055040697187556  1.0000
  H   H2        1.0  0.6666669847440474  0.3333329859851446  0.3944959302812444  1.0000
  N   N1        1.0  0.0  0.0  0.5000000335383981  1.0000
  Y   Y1        1.0  0.3333329854322145  0.6666669831836741  0.4411417735167414  1.0000
  Y   Y2        1.0  0.6666669847440474  0.3333329859851446  0.5588582259826762  1.0000
