data_image0
_chemical_formula_structural       CClN2OY2
_chemical_formula_sum              "C1 Cl1 N2 O1 Y2"
_cell_length_a       3.579663223091207
_cell_length_b       3.5796632230954546
_cell_length_c       26.300862452730676
_cell_angle_alpha    90.0
_cell_angle_beta     90.0
_cell_angle_gamma    119.99999999996075

_space_group_name_H-M_alt    "P 1"
_space_group_IT_number       1

loop_
  _space_group_symop_operation_xyz
  'x, y, z'

loop_
  _atom_site_type_symbol
  _atom_site_label
  _atom_site_symmetry_multiplicity
  _atom_site_fract_x
  _atom_site_fract_y
  _atom_site_fract_z
  _atom_site_occupancy
  C   C1        1.0  0.3333329854322145  0.6666669831836742  0.6119589798188658  1.0000
  Cl  Cl1       1.0  0.6666669847440476  0.3333329859851446  0.3421941016639771  1.0000
  N   N1        1.0  0.0  0.0  0.4606739315408989  1.0000
  N   N2        1.0  0.3333329854322145  0.6666669831836742  0.5645862682589557  1.0000
  O   O1        1.0  0.3333329854322145  0.6666669831836742  0.6578058983360229  1.0000
  Y   Y1        1.0  0.3333329854322145  0.6666669831836742  0.410348678613082  1.0000
  Y   Y2        1.0  0.6666669847440476  0.3333329859851446  0.5103909202505108  1.0000
