data_image0
_chemical_formula_structural       ClN2O2Y2
_chemical_formula_sum              "Cl1 N2 O2 Y2"
_cell_length_a       3.7288146284025228
_cell_length_b       3.7288146284094967
_cell_length_c       25.969055227788772
_cell_angle_alpha    90.0
_cell_angle_beta     90.0
_cell_angle_gamma    119.99999999993814

_space_group_name_H-M_alt    "P 1"
_space_group_IT_number       1

loop_
  _space_group_symop_operation_xyz
  'x, y, z'

loop_
  _atom_site_type_symbol
  _atom_site_label
  _atom_site_symmetry_multiplicity
  _atom_site_fract_x
  _atom_site_fract_y
  _atom_site_fract_z
  _atom_site_occupancy
  Cl  Cl1       1.0  0.6666669847440474  0.3333329859851446  0.34656632369010276  1.0000
  N   N1        1.0  0.0  0.0  0.5226258833956166  1.0000
  N   N2        1.0  0.3333329854322145  0.6666669831836742  0.6049559048890117  1.0000
  O   O1        1.0  0.3333329854322145  0.6666669831836742  0.6534336763098973  1.0000
  O   O2        1.0  0.6666669847440474  0.3333329859851446  0.45055600467436546  1.0000
  Y   Y1        1.0  0.3333329854322145  0.6666669831836742  0.42273517544972916  1.0000
  Y   Y2        1.0  0.6666669847440474  0.3333329859851446  0.5432311527279824  1.0000
