data_image0
_chemical_formula_structural       C3N2O2Ti2
_chemical_formula_sum              "C3 N2 O2 Ti2"
_cell_length_a       3.176003253995154
_cell_length_b       3.176003253995036
_cell_length_c       27.8260096683427
_cell_angle_alpha    90.0
_cell_angle_beta     90.0
_cell_angle_gamma    120.00000000000124

_space_group_name_H-M_alt    "P 1"
_space_group_IT_number       1

loop_
  _space_group_symop_operation_xyz
  'x, y, z'

loop_
  _atom_site_type_symbol
  _atom_site_label
  _atom_site_symmetry_multiplicity
  _atom_site_fract_x
  _atom_site_fract_y
  _atom_site_fract_z
  _atom_site_occupancy
  C   C1        1.0  0.0  0.0  0.500170253999922  1.0000
  C   C2        1.0  0.3333329854322145  0.6666669831836741  0.6333081229686106  1.0000
  C   C3        1.0  0.6666669847440476  0.3333329859851446  0.3661363232373213  1.0000
  N   N1        1.0  0.3333329854322145  0.6666669831836741  0.5884856032982579  1.0000
  N   N2        1.0  0.6666669847440476  0.3333329859851446  0.32343839836436145  1.0000
  O   O1        1.0  0.3333329854322145  0.6666669831836741  0.6765616016356387  1.0000
  O   O2        1.0  0.6666669847440476  0.3333329859851446  0.4141185897252386  1.0000
  Ti  Ti1       1.0  0.3333329854322145  0.6666669831836741  0.46060206321509367  1.0000
  Ti  Ti2       1.0  0.6666669847440476  0.3333329859851446  0.5404954290395654  1.0000
