data_image0
_chemical_formula_structural       CO2PY2
_chemical_formula_sum              "C1 O2 P1 Y2"
_cell_length_a       3.6405528627403556
_cell_length_b       3.640552862767113
_cell_length_c       25.24320628543654
_cell_angle_alpha    90.0
_cell_angle_beta     90.0
_cell_angle_gamma    119.99999999975687

_space_group_name_H-M_alt    "P 1"
_space_group_IT_number       1

loop_
  _space_group_symop_operation_xyz
  'x, y, z'

loop_
  _atom_site_type_symbol
  _atom_site_label
  _atom_site_symmetry_multiplicity
  _atom_site_fract_x
  _atom_site_fract_y
  _atom_site_fract_z
  _atom_site_occupancy
  C   C1        1.0  0.0  0.0  0.4548749952759399  1.0000
  O   O1        1.0  0.3333329854322146  0.6666669831836743  0.6434684287632537  1.0000
  O   O2        1.0  0.6666669847440474  0.3333329859851446  0.3565315712367463  1.0000
  P   P1        1.0  0.3333329854322146  0.6666669831836743  0.5842897389538568  1.0000
  Y   Y1        1.0  0.3333329854322146  0.6666669831836743  0.382324019162291  1.0000
  Y   Y2        1.0  0.6666669847440474  0.3333329859851446  0.4952399214375168  1.0000
