data_image0
_chemical_formula_structural       CCl2O2Ti2
_chemical_formula_sum              "C1 Cl2 O2 Ti2"
_cell_length_a       3.051940219256411
_cell_length_b       3.051940219257445
_cell_length_c       32.87057247572948
_cell_angle_alpha    90.0
_cell_angle_beta     90.0
_cell_angle_gamma    119.9999999999888

_space_group_name_H-M_alt    "P 1"
_space_group_IT_number       1

loop_
  _space_group_symop_operation_xyz
  'x, y, z'

loop_
  _atom_site_type_symbol
  _atom_site_label
  _atom_site_symmetry_multiplicity
  _atom_site_fract_x
  _atom_site_fract_y
  _atom_site_fract_z
  _atom_site_occupancy
  C   C1        1.0  0.0  0.0  0.5000000305115411  1.0000
  Cl  Cl1       1.0  0.3333329854322146  0.6666669831836742  0.7261988665805776  1.0000
  Cl  Cl2       1.0  0.6666669847440474  0.3333329859851446  0.2738011334194224  1.0000
  O   O1        1.0  0.3333329854322146  0.6666669831836742  0.5670908628140463  1.0000
  O   O2        1.0  0.6666669847440474  0.3333329859851446  0.43290913718596175  1.0000
  Ti  Ti1       1.0  0.3333329854322146  0.6666669831836742  0.4599490342222846  1.0000
  Ti  Ti2       1.0  0.6666669847440474  0.3333329859851446  0.5400509653223191  1.0000
