data_image0
_chemical_formula_structural       CO2PSc2
_chemical_formula_sum              "C1 O2 P1 Sc2"
_cell_length_a       3.369738668769026
_cell_length_b       3.369738668765043
_cell_length_c       24.890767354269254
_cell_angle_alpha    90.0
_cell_angle_beta     90.0
_cell_angle_gamma    120.0000000000391

_space_group_name_H-M_alt    "P 1"
_space_group_IT_number       1

loop_
  _space_group_symop_operation_xyz
  'x, y, z'

loop_
  _atom_site_type_symbol
  _atom_site_label
  _atom_site_symmetry_multiplicity
  _atom_site_fract_x
  _atom_site_fract_y
  _atom_site_fract_z
  _atom_site_occupancy
  C   C1        1.0  0.0  0.0  0.45444396663787007  1.0000
  O   O1        1.0  0.33333298543221435  0.6666669831836741  0.6384201470407329  1.0000
  O   O2        1.0  0.6666669847440473  0.33333298598514444  0.361579852959267  1.0000
  P   P1        1.0  0.33333298543221435  0.6666669831836741  0.5785106790411265  1.0000
  Sc  Sc1       1.0  0.33333298543221435  0.6666669831836741  0.3875813251015193  1.0000
  Sc  Sc2       1.0  0.6666669847440473  0.33333298598514444  0.4913381149888173  1.0000
