data_image0
_chemical_formula_structural       BrHNTi2
_chemical_formula_sum              "Br1 H1 N1 Ti2"
_cell_length_a       3.205429598929734
_cell_length_b       3.205429598925698
_cell_length_c       22.890785214073425
_cell_angle_alpha    90.0
_cell_angle_beta     90.0
_cell_angle_gamma    120.00000000004167

_space_group_name_H-M_alt    "P 1"
_space_group_IT_number       1

loop_
  _space_group_symop_operation_xyz
  'x, y, z'

loop_
  _atom_site_type_symbol
  _atom_site_label
  _atom_site_symmetry_multiplicity
  _atom_site_fract_x
  _atom_site_fract_y
  _atom_site_fract_z
  _atom_site_occupancy
  Br  Br1       1.0  0.3333329854322145  0.6666669831836742  0.6068286904170184  1.0000
  H   H1        1.0  0.6666669847440474  0.3333329859851446  0.39317130958298163  1.0000
  N   N1        1.0  0.0  0.0  0.480264342525947  1.0000
  Ti  Ti1       1.0  0.3333329854322145  0.6666669831836742  0.4350720674025483  1.0000
  Ti  Ti2       1.0  0.6666669847440474  0.3333329859851446  0.5250105981165373  1.0000
