data_image0
_chemical_formula_structural       CN3O2Zr2
_chemical_formula_sum              "C1 N3 O2 Zr2"
_cell_length_a       3.343093539254328
_cell_length_b       3.343093539235824
_cell_length_c       26.91655897225421
_cell_angle_alpha    90.0
_cell_angle_beta     90.0
_cell_angle_gamma    120.00000000018309

_space_group_name_H-M_alt    "P 1"
_space_group_IT_number       1

loop_
  _space_group_symop_operation_xyz
  'x, y, z'

loop_
  _atom_site_type_symbol
  _atom_site_label
  _atom_site_symmetry_multiplicity
  _atom_site_fract_x
  _atom_site_fract_y
  _atom_site_fract_z
  _atom_site_occupancy
  C   C1        1.0  0.6666669847440474  0.3333329859851446  0.3791159085790689  1.0000
  N   N1        1.0  0.0  0.0  0.5232860307604537  1.0000
  N   N2        1.0  0.3333329854322144  0.6666669831836742  0.6168110907187929  1.0000
  N   N3        1.0  0.6666669847440474  0.3333329859851446  0.4254911684070088  1.0000
  O   O1        1.0  0.3333329854322144  0.6666669831836742  0.6656333371112829  1.0000
  O   O2        1.0  0.6666669847440474  0.3333329859851446  0.3343666628887171  1.0000
  Zr  Zr1       1.0  0.3333329854322144  0.6666669831836742  0.47981445041177034  1.0000
  Zr  Zr2       1.0  0.6666669847440474  0.3333329859851446  0.570876438652444  1.0000
