data_image0
_chemical_formula_structural       CClHHf2O2
_chemical_formula_sum              "C1 Cl1 H1 Hf2 O2"
_cell_length_a       3.260676423212196
_cell_length_b       3.2606764232136953
_cell_length_c       27.30525752426403
_cell_angle_alpha    90.0
_cell_angle_beta     90.0
_cell_angle_gamma    119.9999999999848

_space_group_name_H-M_alt    "P 1"
_space_group_IT_number       1

loop_
  _space_group_symop_operation_xyz
  'x, y, z'

loop_
  _atom_site_type_symbol
  _atom_site_label
  _atom_site_symmetry_multiplicity
  _atom_site_fract_x
  _atom_site_fract_y
  _atom_site_fract_z
  _atom_site_occupancy
  C   C1        1.0  0.0  0.0  0.4586218509032837  1.0000
  Cl  Cl1       1.0  0.33333298543221446  0.6666669831836742  0.670393147107204  1.0000
  H   H1        1.0  0.6666669847440474  0.3333329859851446  0.32960685289279584  1.0000
  Hf  Hf1       1.0  0.33333298543221446  0.6666669831836742  0.4140768797304503  1.0000
  Hf  Hf2       1.0  0.6666669847440474  0.3333329859851446  0.5109657264615672  1.0000
  O   O1        1.0  0.33333298543221446  0.6666669831836742  0.543923488285115  1.0000
  O   O2        1.0  0.6666669847440474  0.3333329859851446  0.36586321100648905  1.0000
