data_image0
_chemical_formula_structural       CHN2Zr2
_chemical_formula_sum              "C1 H1 N2 Zr2"
_cell_length_a       3.3425491432362953
_cell_length_b       3.3425491432359173
_cell_length_c       24.099248248970696
_cell_angle_alpha    90.0
_cell_angle_beta     90.0
_cell_angle_gamma    120.00000000000375

_space_group_name_H-M_alt    "P 1"
_space_group_IT_number       1

loop_
  _space_group_symop_operation_xyz
  'x, y, z'

loop_
  _atom_site_type_symbol
  _atom_site_label
  _atom_site_symmetry_multiplicity
  _atom_site_fract_x
  _atom_site_fract_y
  _atom_site_fract_z
  _atom_site_occupancy
  C   C1        1.0  0.3333329854322145  0.6666669831836741  0.5765268751771117  1.0000
  H   H1        1.0  0.6666669847440475  0.3333329859851446  0.3734556325998426  1.0000
  N   N1        1.0  0.0  0.0  0.4645099525364917  1.0000
  N   N2        1.0  0.3333329854322145  0.6666669831836741  0.6265443674001574  1.0000
  Zr  Zr1       1.0  0.3333329854322145  0.6666669831836741  0.4150041375472689  1.0000
  Zr  Zr2       1.0  0.6666669847440475  0.3333329859851446  0.5142194756931231  1.0000
