data_image0
_chemical_formula_structural       C2Hf2N3S
_chemical_formula_sum              "C2 Hf2 N3 S1"
_cell_length_a       3.333481852231156
_cell_length_b       3.3334818522230973
_cell_length_c       27.15083959127851
_cell_angle_alpha    90.0
_cell_angle_beta     90.0
_cell_angle_gamma    120.00000000007996

_space_group_name_H-M_alt    "P 1"
_space_group_IT_number       1

loop_
  _space_group_symop_operation_xyz
  'x, y, z'

loop_
  _atom_site_type_symbol
  _atom_site_label
  _atom_site_symmetry_multiplicity
  _atom_site_fract_x
  _atom_site_fract_y
  _atom_site_fract_z
  _atom_site_occupancy
  C   C1        1.0  0.3333329854322145  0.6666669831836742  0.624009667978414  1.0000
  C   C2        1.0  0.6666669847440474  0.3333329859851446  0.38852310210758556  1.0000
  Hf  Hf1       1.0  0.3333329854322145  0.6666669831836742  0.4846212840639637  1.0000
  Hf  Hf2       1.0  0.6666669847440474  0.3333329859851446  0.5701735901630518  1.0000
  N   N1        1.0  0.0  0.0  0.5271142579126302  1.0000
  N   N2        1.0  0.3333329854322145  0.6666669831836742  0.6685185380826669  1.0000
  N   N3        1.0  0.6666669847440474  0.3333329859851446  0.43514470371168257  1.0000
  S   S1        1.0  0.6666669847440474  0.3333329859851446  0.331481461917333  1.0000
