data_image0
_chemical_formula_structural       C2ClNO2Ti2
_chemical_formula_sum              "C2 Cl1 N1 O2 Ti2"
_cell_length_a       3.1010814883988567
_cell_length_b       3.1010814883987905
_cell_length_c       30.321935230270924
_cell_angle_alpha    90.0
_cell_angle_beta     90.0
_cell_angle_gamma    120.00000000000071

_space_group_name_H-M_alt    "P 1"
_space_group_IT_number       1

loop_
  _space_group_symop_operation_xyz
  'x, y, z'

loop_
  _atom_site_type_symbol
  _atom_site_label
  _atom_site_symmetry_multiplicity
  _atom_site_fract_x
  _atom_site_fract_y
  _atom_site_fract_z
  _atom_site_occupancy
  C   C1        1.0  0.0  0.0  0.46025001738363225  1.0000
  C   C2        1.0  0.6666669847440474  0.3333329859851445  0.3359817472909097  1.0000
  Cl  Cl1       1.0  0.3333329854322146  0.6666669831836742  0.703185171670206  1.0000
  N   N1        1.0  0.6666669847440474  0.3333329859851445  0.2968148283297941  1.0000
  O   O1        1.0  0.3333329854322146  0.6666669831836742  0.5339080575162304  1.0000
  O   O2        1.0  0.6666669847440474  0.3333329859851445  0.38009918318254926  1.0000
  Ti  Ti1       1.0  0.3333329854322146  0.6666669831836742  0.4232667942350041  1.0000
  Ti  Ti2       1.0  0.6666669847440474  0.3333329859851445  0.5045657667832225  1.0000
