data_image0
_chemical_formula_structural       C3N2O2Sc2
_chemical_formula_sum              "C3 N2 O2 Sc2"
_cell_length_a       3.360442776355224
_cell_length_b       3.3604427763494535
_cell_length_c       28.07630093292761
_cell_angle_alpha    90.0
_cell_angle_beta     90.0
_cell_angle_gamma    120.00000000005681

_space_group_name_H-M_alt    "P 1"
_space_group_IT_number       1

loop_
  _space_group_symop_operation_xyz
  'x, y, z'

loop_
  _atom_site_type_symbol
  _atom_site_label
  _atom_site_symmetry_multiplicity
  _atom_site_fract_x
  _atom_site_fract_y
  _atom_site_fract_z
  _atom_site_occupancy
  C   C1        1.0  0.0  0.0  0.5000000294639222  1.0000
  C   C2        1.0  0.3333329854322144  0.6666669831836742  0.6365460061894621  1.0000
  C   C3        1.0  0.6666669847440474  0.3333329859851446  0.3634539933707857  1.0000
  N   N1        1.0  0.3333329854322144  0.6666669831836742  0.5921725846532517  1.0000
  N   N2        1.0  0.6666669847440474  0.3333329859851446  0.407827415346756  1.0000
  O   O1        1.0  0.3333329854322144  0.6666669831836742  0.6794449517584104  1.0000
  O   O2        1.0  0.6666669847440474  0.3333329859851446  0.32055504824158976  1.0000
  Sc  Sc1       1.0  0.3333329854322144  0.6666669831836742  0.4553684700304091  1.0000
  Sc  Sc2       1.0  0.6666669847440474  0.3333329859851446  0.5446315295298307  1.0000
