data_image0
_chemical_formula_structural       CO2Sc2
_chemical_formula_sum              "C1 O2 Sc2"
_cell_length_a       3.2434842520921823
_cell_length_b       3.2434842520888476
_cell_length_c       22.851188601973888
_cell_angle_alpha    90.0
_cell_angle_beta     90.0
_cell_angle_gamma    120.000000000034

_space_group_name_H-M_alt    "P 1"
_space_group_IT_number       1

loop_
  _space_group_symop_operation_xyz
  'x, y, z'

loop_
  _atom_site_type_symbol
  _atom_site_label
  _atom_site_symmetry_multiplicity
  _atom_site_fract_x
  _atom_site_fract_y
  _atom_site_fract_z
  _atom_site_occupancy
  C   C1        1.0  0.0  0.0  0.5000000388589461  1.0000
  O   O1        1.0  0.33333298543221457  0.6666669831836742  0.6061474019245292  1.0000
  O   O2        1.0  0.6666669847440474  0.3333329859851446  0.3938525980754707  1.0000
  Sc  Sc1       1.0  0.33333298543221457  0.6666669831836742  0.426514026549792  1.0000
  Sc  Sc2       1.0  0.6666669847440474  0.3333329859851446  0.5734859728702135  1.0000
