data_image0
_chemical_formula_structural       Br2CSc2
_chemical_formula_sum              "Br2 C1 Sc2"
_cell_length_a       3.525576813750317
_cell_length_b       3.525576813749863
_cell_length_c       24.112186508739534
_cell_angle_alpha    90.0
_cell_angle_beta     90.0
_cell_angle_gamma    120.00000000000426

_space_group_name_H-M_alt    "P 1"
_space_group_IT_number       1

loop_
  _space_group_symop_operation_xyz
  'x, y, z'

loop_
  _atom_site_type_symbol
  _atom_site_label
  _atom_site_symmetry_multiplicity
  _atom_site_fract_x
  _atom_site_fract_y
  _atom_site_fract_z
  _atom_site_occupancy
  Br  Br1       1.0  0.33333298543221435  0.6666669831836742  0.6267447584341669  1.0000
  Br  Br2       1.0  0.6666669847440474  0.3333329859851446  0.3732552415658331  1.0000
  C   C1        1.0  0.0  0.0  0.5000000311692565  1.0000
  Sc  Sc1       1.0  0.33333298543221435  0.6666669831836742  0.44963839954068885  1.0000
  Sc  Sc2       1.0  0.6666669847440474  0.3333329859851446  0.5503615999940898  1.0000
