data_image0
_chemical_formula_structural       C2N3S2Sc2
_chemical_formula_sum              "C2 N3 S2 Sc2"
_cell_length_a       3.5095022322214735
_cell_length_b       3.509502232216572
_cell_length_c       29.255510916031877
_cell_angle_alpha    90.0
_cell_angle_beta     90.0
_cell_angle_gamma    120.0000000000462

_space_group_name_H-M_alt    "P 1"
_space_group_IT_number       1

loop_
  _space_group_symop_operation_xyz
  'x, y, z'

loop_
  _atom_site_type_symbol
  _atom_site_label
  _atom_site_symmetry_multiplicity
  _atom_site_fract_x
  _atom_site_fract_y
  _atom_site_fract_z
  _atom_site_occupancy
  C   C1        1.0  0.3333329854322145  0.6666669831836742  0.6516758688209908  1.0000
  C   C2        1.0  0.6666669847440474  0.3333329859851446  0.3483241315659554  1.0000
  N   N1        1.0  0.0  0.0  0.5000000261188254  1.0000
  N   N2        1.0  0.3333329854322145  0.6666669831836742  0.6923656528907843  1.0000
  N   N3        1.0  0.6666669847440474  0.3333329859851446  0.3076343471092157  1.0000
  S   S1        1.0  0.3333329854322145  0.6666669831836742  0.5943531563019783  1.0000
  S   S2        1.0  0.6666669847440474  0.3333329859851446  0.405646844084968  1.0000
  Sc  Sc1       1.0  0.3333329854322145  0.6666669831836742  0.4602421493103224  1.0000
  Sc  Sc2       1.0  0.6666669847440474  0.3333329859851446  0.5397578506896713  1.0000
