data_image0
_chemical_formula_structural       HN2OZr2
_chemical_formula_sum              "H1 N2 O1 Zr2"
_cell_length_a       3.28781591252059
_cell_length_b       3.287815912521171
_cell_length_c       24.112613355857963
_cell_angle_alpha    90.0
_cell_angle_beta     90.0
_cell_angle_gamma    119.99999999999416

_space_group_name_H-M_alt    "P 1"
_space_group_IT_number       1

loop_
  _space_group_symop_operation_xyz
  'x, y, z'

loop_
  _atom_site_type_symbol
  _atom_site_label
  _atom_site_symmetry_multiplicity
  _atom_site_fract_x
  _atom_site_fract_y
  _atom_site_fract_z
  _atom_site_occupancy
  H   H1        1.0  0.6666669847440475  0.3333329859851446  0.37324863411429116  1.0000
  N   N1        1.0  0.0  0.0  0.46685555479370683  1.0000
  N   N2        1.0  0.33333298543221446  0.6666669831836742  0.5722512393743033  1.0000
  O   O1        1.0  0.33333298543221446  0.6666669831836742  0.6267513658857089  1.0000
  Zr  Zr1       1.0  0.33333298543221446  0.6666669831836742  0.41418329366820933  1.0000
  Zr  Zr2       1.0  0.6666669847440475  0.3333329859851446  0.5202313063464616  1.0000
