data_image0
_chemical_formula_structural       BrCHOSc2
_chemical_formula_sum              "Br1 C1 H1 O1 Sc2"
_cell_length_a       3.4213574611329944
_cell_length_b       3.4213574611259685
_cell_length_c       24.5434551705255
_cell_angle_alpha    90.0
_cell_angle_beta     90.0
_cell_angle_gamma    120.00000000006793

_space_group_name_H-M_alt    "P 1"
_space_group_IT_number       1

loop_
  _space_group_symop_operation_xyz
  'x, y, z'

loop_
  _atom_site_type_symbol
  _atom_site_label
  _atom_site_symmetry_multiplicity
  _atom_site_fract_x
  _atom_site_fract_y
  _atom_site_fract_z
  _atom_site_occupancy
  Br  Br1       1.0  0.3333329854322146  0.6666669831836742  0.6333034636945415  1.0000
  C   C1        1.0  0.0  0.0  0.5070231533124849  1.0000
  H   H1        1.0  0.6666669847440474  0.3333329859851446  0.3666965363054586  1.0000
  O   O1        1.0  0.6666669847440474  0.3333329859851446  0.40682377708264783  1.0000
  Sc  Sc1       1.0  0.3333329854322146  0.6666669831836742  0.4556942924100594  1.0000
  Sc  Sc2       1.0  0.6666669847440474  0.3333329859851446  0.5566904602336084  1.0000
