data_image0
_chemical_formula_structural       BrC2NOTi2
_chemical_formula_sum              "Br1 C2 N1 O1 Ti2"
_cell_length_a       3.2503194420271564
_cell_length_b       3.2503194420264827
_cell_length_c       25.8168482137519
_cell_angle_alpha    90.0
_cell_angle_beta     90.0
_cell_angle_gamma    120.00000000000686

_space_group_name_H-M_alt    "P 1"
_space_group_IT_number       1

loop_
  _space_group_symop_operation_xyz
  'x, y, z'

loop_
  _atom_site_type_symbol
  _atom_site_label
  _atom_site_symmetry_multiplicity
  _atom_site_fract_x
  _atom_site_fract_y
  _atom_site_fract_z
  _atom_site_occupancy
  Br  Br1       1.0  0.3333329854322145  0.6666669831836742  0.6513904437333308  1.0000
  C   C1        1.0  0.0  0.0  0.5376713172350897  1.0000
  C   C2        1.0  0.6666669847440475  0.3333329859851446  0.39464066812416165  1.0000
  N   N1        1.0  0.6666669847440475  0.3333329859851446  0.3486095562666691  1.0000
  O   O1        1.0  0.6666669847440475  0.3333329859851446  0.44631276102292056  1.0000
  Ti  Ti1       1.0  0.3333329854322145  0.6666669831836742  0.49585955598443093  1.0000
  Ti  Ti2       1.0  0.6666669847440475  0.3333329859851446  0.5797547445500739  1.0000
