data_image0
_chemical_formula_structural       C2HNSTi2
_chemical_formula_sum              "C2 H1 N1 S1 Ti2"
_cell_length_a       3.226990131373293
_cell_length_b       3.226990131345588
_cell_length_c       25.57985863985072
_cell_angle_alpha    90.0
_cell_angle_beta     90.0
_cell_angle_gamma    120.000000000284

_space_group_name_H-M_alt    "P 1"
_space_group_IT_number       1

loop_
  _space_group_symop_operation_xyz
  'x, y, z'

loop_
  _atom_site_type_symbol
  _atom_site_label
  _atom_site_symmetry_multiplicity
  _atom_site_fract_x
  _atom_site_fract_y
  _atom_site_fract_z
  _atom_site_occupancy
  C   C1        1.0  0.0  0.0  0.4308453707045898  1.0000
  C   C2        1.0  0.33333298543221446  0.6666669831836741  0.6016062694793424  1.0000
  H   H1        1.0  0.6666669847440473  0.3333329859851446  0.35183931728140794  1.0000
  N   N1        1.0  0.33333298543221446  0.6666669831836741  0.6481606827185922  1.0000
  S   S1        1.0  0.33333298543221446  0.6666669831836741  0.5361904765825826  1.0000
  Ti  Ti1       1.0  0.33333298543221446  0.6666669831836741  0.3882384642520659  1.0000
  Ti  Ti2       1.0  0.6666669847440473  0.3333329859851446  0.47477234647285854  1.0000
