data_image0
_chemical_formula_structural       H2NOZr2
_chemical_formula_sum              "H2 N1 O1 Zr2"
_cell_length_a       3.284154881364119
_cell_length_b       3.2841548813629933
_cell_length_c       23.834024021022376
_cell_angle_alpha    90.0
_cell_angle_beta     90.0
_cell_angle_gamma    120.00000000001134

_space_group_name_H-M_alt    "P 1"
_space_group_IT_number       1

loop_
  _space_group_symop_operation_xyz
  'x, y, z'

loop_
  _atom_site_type_symbol
  _atom_site_label
  _atom_site_symmetry_multiplicity
  _atom_site_fract_x
  _atom_site_fract_y
  _atom_site_fract_z
  _atom_site_occupancy
  H   H1        1.0  0.3333329854322145  0.6666669831836742  0.6223885655203791  1.0000
  H   H2        1.0  0.6666669847440475  0.3333329859851446  0.37761143447962087  1.0000
  N   N1        1.0  0.0  0.0  0.5270393420441367  1.0000
  O   O1        1.0  0.6666669847440475  0.3333329859851446  0.4191897403341928  1.0000
  Zr  Zr1       1.0  0.3333329854322145  0.6666669831836742  0.47591047753772087  1.0000
  Zr  Zr2       1.0  0.6666669847440475  0.3333329859851446  0.5788969931206427  1.0000
