data_image0
_chemical_formula_structural       CClHf2NO
_chemical_formula_sum              "C1 Cl1 Hf2 N1 O1"
_cell_length_a       3.3940494352651553
_cell_length_b       3.39404943525862
_cell_length_c       24.61468112550254
_cell_angle_alpha    90.0
_cell_angle_beta     90.0
_cell_angle_gamma    120.00000000006371

_space_group_name_H-M_alt    "P 1"
_space_group_IT_number       1

loop_
  _space_group_symop_operation_xyz
  'x, y, z'

loop_
  _atom_site_type_symbol
  _atom_site_label
  _atom_site_symmetry_multiplicity
  _atom_site_fract_x
  _atom_site_fract_y
  _atom_site_fract_z
  _atom_site_occupancy
  C   C1        1.0  0.0  0.0  0.483077014291736  1.0000
  Cl  Cl1       1.0  0.6666669847440474  0.3333329859851445  0.36563544959659733  1.0000
  Hf  Hf1       1.0  0.3333329854322145  0.6666669831836742  0.43863651731425896  1.0000
  Hf  Hf2       1.0  0.6666669847440474  0.3333329859851445  0.5418021771744682  1.0000
  N   N1        1.0  0.3333329854322145  0.6666669831836742  0.579682233963946  1.0000
  O   O1        1.0  0.3333329854322145  0.6666669831836742  0.6343645504034026  1.0000
