data_image0
_chemical_formula_structural       CClN2SY2
_chemical_formula_sum              "C1 Cl1 N2 S1 Y2"
_cell_length_a       3.6835275006439656
_cell_length_b       3.6835275006630277
_cell_length_c       26.93226296319024
_cell_angle_alpha    90.0
_cell_angle_beta     90.0
_cell_angle_gamma    119.99999999982883

_space_group_name_H-M_alt    "P 1"
_space_group_IT_number       1

loop_
  _space_group_symop_operation_xyz
  'x, y, z'

loop_
  _atom_site_type_symbol
  _atom_site_label
  _atom_site_symmetry_multiplicity
  _atom_site_fract_x
  _atom_site_fract_y
  _atom_site_fract_z
  _atom_site_occupancy
  C   C1        1.0  0.3333329854322145  0.6666669831836742  0.6216416520875676  1.0000
  Cl  Cl1       1.0  0.6666669847440475  0.3333329859851446  0.3341716963145941  1.0000
  N   N1        1.0  0.0  0.0  0.4454505660615792  1.0000
  N   N2        1.0  0.3333329854322145  0.6666669831836742  0.665828303685406  1.0000
  S   S1        1.0  0.3333329854322145  0.6666669831836742  0.5592877948556007  1.0000
  Y   Y1        1.0  0.3333329854322145  0.6666669831836742  0.3992307390510585  1.0000
  Y   Y2        1.0  0.6666669847440475  0.3333329859851446  0.4954274125359052  1.0000
