data_image0
_chemical_formula_structural       CClHOY2
_chemical_formula_sum              "C1 Cl1 H1 O1 Y2"
_cell_length_a       3.752707402329729
_cell_length_b       3.752707402319073
_cell_length_c       24.01907051522204
_cell_angle_alpha    90.0
_cell_angle_beta     90.0
_cell_angle_gamma    120.00000000009393

_space_group_name_H-M_alt    "P 1"
_space_group_IT_number       1

loop_
  _space_group_symop_operation_xyz
  'x, y, z'

loop_
  _atom_site_type_symbol
  _atom_site_label
  _atom_site_symmetry_multiplicity
  _atom_site_fract_x
  _atom_site_fract_y
  _atom_site_fract_z
  _atom_site_occupancy
  C   C1        1.0  0.0  0.0  0.4428172933375532  1.0000
  Cl  Cl1       1.0  0.3333329854322145  0.6666669831836742  0.6252977402145405  1.0000
  H   H1        1.0  0.6666669847440475  0.3333329859851446  0.37470225978545957  1.0000
  O   O1        1.0  0.3333329854322145  0.6666669831836742  0.5149372831326955  1.0000
  Y   Y1        1.0  0.3333329854322145  0.6666669831836742  0.4106595214692249  1.0000
  Y   Y2        1.0  0.6666669847440475  0.3333329859851446  0.541895577161454  1.0000
