data_image0
_chemical_formula_structural       ClNOPTi2
_chemical_formula_sum              "Cl1 N1 O1 P1 Ti2"
_cell_length_a       3.1811937451935557
_cell_length_b       3.181193745189878
_cell_length_c       25.146090921619937
_cell_angle_alpha    90.0
_cell_angle_beta     90.0
_cell_angle_gamma    120.00000000003823

_space_group_name_H-M_alt    "P 1"
_space_group_IT_number       1

loop_
  _space_group_symop_operation_xyz
  'x, y, z'

loop_
  _atom_site_type_symbol
  _atom_site_label
  _atom_site_symmetry_multiplicity
  _atom_site_fract_x
  _atom_site_fract_y
  _atom_site_fract_z
  _atom_site_occupancy
  Cl  Cl1       1.0  0.6666669847440474  0.3333329859851446  0.35790851262142054  1.0000
  N   N1        1.0  0.0  0.0  0.46633773477877316  1.0000
  O   O1        1.0  0.3333329854322145  0.6666669831836742  0.6420914873785794  1.0000
  P   P1        1.0  0.3333329854322145  0.6666669831836742  0.5827466972096591  1.0000
  Ti  Ti1       1.0  0.3333329854322145  0.6666669831836742  0.4250720168495704  1.0000
  Ti  Ti2       1.0  0.6666669847440474  0.3333329859851446  0.5094023385292928  1.0000
