data_image0
_chemical_formula_structural       CCl2OY2
_chemical_formula_sum              "C1 Cl2 O1 Y2"
_cell_length_a       3.7760985035116392
_cell_length_b       3.77609850352681
_cell_length_c       24.901232064212838
_cell_angle_alpha    90.0
_cell_angle_beta     90.0
_cell_angle_gamma    119.9999999998671

_space_group_name_H-M_alt    "P 1"
_space_group_IT_number       1

loop_
  _space_group_symop_operation_xyz
  'x, y, z'

loop_
  _atom_site_type_symbol
  _atom_site_label
  _atom_site_symmetry_multiplicity
  _atom_site_fract_x
  _atom_site_fract_y
  _atom_site_fract_z
  _atom_site_occupancy
  C   C1        1.0  0.0  0.0  0.4685183633868555  1.0000
  Cl  Cl1       1.0  0.33333298543221457  0.6666669831836742  0.6385721004972089  1.0000
  Cl  Cl2       1.0  0.6666669847440474  0.3333329859851446  0.3614278995027912  1.0000
  O   O1        1.0  0.33333298543221457  0.6666669831836742  0.5326287345234936  1.0000
  Y   Y1        1.0  0.33333298543221457  0.6666669831836742  0.4331501188553367  1.0000
  Y   Y2        1.0  0.6666669847440474  0.3333329859851446  0.55807822731663  1.0000
