data_image0
_chemical_formula_structural       C2ClHf2NO
_chemical_formula_sum              "C2 Cl1 Hf2 N1 O1"
_cell_length_a       3.3645634515915988
_cell_length_b       3.36456345157567
_cell_length_c       26.042295565549058
_cell_angle_alpha    90.0
_cell_angle_beta     90.0
_cell_angle_gamma    120.0000000001566

_space_group_name_H-M_alt    "P 1"
_space_group_IT_number       1

loop_
  _space_group_symop_operation_xyz
  'x, y, z'

loop_
  _atom_site_type_symbol
  _atom_site_label
  _atom_site_symmetry_multiplicity
  _atom_site_fract_x
  _atom_site_fract_y
  _atom_site_fract_z
  _atom_site_occupancy
  C   C1        1.0  0.0  0.0  0.45999083524434287  1.0000
  C   C2        1.0  0.33333298543221457  0.6666669831836741  0.6081305550838684  1.0000
  Cl  Cl1       1.0  0.6666669847440474  0.3333329859851446  0.345591654059328  1.0000
  Hf  Hf1       1.0  0.33333298543221457  0.6666669831836741  0.4145074192015941  1.0000
  Hf  Hf2       1.0  0.6666669847440474  0.3333329859851446  0.5054609447558314  1.0000
  N   N1        1.0  0.33333298543221457  0.6666669831836741  0.560156598404126  1.0000
  O   O1        1.0  0.33333298543221457  0.6666669831836741  0.654408345940672  1.0000
