data_image0
_chemical_formula_structural       CFHY2
_chemical_formula_sum              "C1 F1 H1 Y2"
_cell_length_a       3.5819587364600904
_cell_length_b       3.581958736463669
_cell_length_c       27.167362099400922
_cell_angle_alpha    90.0
_cell_angle_beta     90.0
_cell_angle_gamma    119.99999999996696

_space_group_name_H-M_alt    "P 1"
_space_group_IT_number       1

loop_
  _space_group_symop_operation_xyz
  'x, y, z'

loop_
  _atom_site_type_symbol
  _atom_site_label
  _atom_site_symmetry_multiplicity
  _atom_site_fract_x
  _atom_site_fract_y
  _atom_site_fract_z
  _atom_site_occupancy
  C   C1        1.0  9.373065279770613e-33  2.2591725547328385e-32  0.4981147606697714  1.0000
  F   F1        1.0  0.33333298543221457  0.6666669831836743  0.5915953650076604  1.0000
  H   H1        1.0  0.6666669847440474  0.3333329859851446  0.4081656616669093  1.0000
  Y   Y1        1.0  0.33333298543221457  0.6666669831836743  0.4478745798543902  1.0000
  Y   Y2        1.0  0.6666669847440474  0.3333329859851446  0.5486826986320593  1.0000
