data_image0
_chemical_formula_structural       Br2CZr2
_chemical_formula_sum              "Br2 C1 Zr2"
_cell_length_a       3.520047329727893
_cell_length_b       3.5200473297242847
_cell_length_c       24.274564735051964
_cell_angle_alpha    90.0
_cell_angle_beta     90.0
_cell_angle_gamma    120.0000000000339

_space_group_name_H-M_alt    "P 1"
_space_group_IT_number       1

loop_
  _space_group_symop_operation_xyz
  'x, y, z'

loop_
  _atom_site_type_symbol
  _atom_site_label
  _atom_site_symmetry_multiplicity
  _atom_site_fract_x
  _atom_site_fract_y
  _atom_site_fract_z
  _atom_site_occupancy
  Br  Br1       1.0  0.33333298543221457  0.6666669831836741  0.6292415498184325  1.0000
  Br  Br2       1.0  0.6666669847440475  0.3333329859851446  0.37075845018156744  1.0000
  C   C1        1.0  0.0  0.0  0.5000000310581043  1.0000
  Zr  Zr1       1.0  0.33333298543221457  0.6666669831836741  0.45130742016561787  1.0000
  Zr  Zr2       1.0  0.6666669847440475  0.3333329859851446  0.5486925793708203  1.0000
