data_image0
_chemical_formula_structural       C2Hf2N3S2
_chemical_formula_sum              "C2 Hf2 N3 S2"
_cell_length_a       3.501013475848995
_cell_length_b       3.5010134758465234
_cell_length_c       29.24433188647098
_cell_angle_alpha    90.0
_cell_angle_beta     90.0
_cell_angle_gamma    120.00000000002335

_space_group_name_H-M_alt    "P 1"
_space_group_IT_number       1

loop_
  _space_group_symop_operation_xyz
  'x, y, z'

loop_
  _atom_site_type_symbol
  _atom_site_label
  _atom_site_symmetry_multiplicity
  _atom_site_fract_x
  _atom_site_fract_y
  _atom_site_fract_z
  _atom_site_occupancy
  C   C1        1.0  0.33333298543221473  0.6666669831836745  0.6515433710603076  1.0000
  C   C2        1.0  0.6666669847440474  0.3333329859851446  0.3484566293286655  1.0000
  Hf  Hf1       1.0  0.33333298543221473  0.6666669831836745  0.4615022500128073  1.0000
  Hf  Hf2       1.0  0.6666669847440474  0.3333329859851446  0.5384977499871857  1.0000
  N   N1        1.0  0.0  0.0  0.5000000262556697  1.0000
  N   N2        1.0  0.33333298543221473  0.6666669831836745  0.6922480556253165  1.0000
  N   N3        1.0  0.6666669847440474  0.3333329859851446  0.3077519443746835  1.0000
  S   S1        1.0  0.33333298543221473  0.6666669831836745  0.593555691454534  1.0000
  S   S2        1.0  0.6666669847440474  0.3333329859851446  0.4064443089344387  1.0000
