data_image0
_chemical_formula_structural       CClHHf2O
_chemical_formula_sum              "C1 Cl1 H1 Hf2 O1"
_cell_length_a       3.2411389608422576
_cell_length_b       3.2411389608445758
_cell_length_c       26.19867916396086
_cell_angle_alpha    90.0
_cell_angle_beta     90.0
_cell_angle_gamma    119.99999999997635

_space_group_name_H-M_alt    "P 1"
_space_group_IT_number       1

loop_
  _space_group_symop_operation_xyz
  'x, y, z'

loop_
  _atom_site_type_symbol
  _atom_site_label
  _atom_site_symmetry_multiplicity
  _atom_site_fract_x
  _atom_site_fract_y
  _atom_site_fract_z
  _atom_site_occupancy
  C   C1        1.0  0.0  0.0  0.43063266752256557  1.0000
  Cl  Cl1       1.0  0.3333329854322144  0.6666669831836741  0.6564712311000594  1.0000
  H   H1        1.0  0.6666669847440474  0.33333298598514444  0.3435287688999408  1.0000
  Hf  Hf1       1.0  0.3333329854322144  0.6666669831836741  0.38317035635033386  1.0000
  Hf  Hf2       1.0  0.6666669847440474  0.33333298598514444  0.48486488296215774  1.0000
  O   O1        1.0  0.3333329854322144  0.6666669831836741  0.5200533042437125  1.0000
