data_image0
_chemical_formula_structural       C2ClNOSZr2
_chemical_formula_sum              "C2 Cl1 N1 O1 S1 Zr2"
_cell_length_a       3.637127477710739
_cell_length_b       3.637127477710865
_cell_length_c       27.260167492152995
_cell_angle_alpha    90.0
_cell_angle_beta     90.0
_cell_angle_gamma    119.99999999999885

_space_group_name_H-M_alt    "P 1"
_space_group_IT_number       1

loop_
  _space_group_symop_operation_xyz
  'x, y, z'

loop_
  _atom_site_type_symbol
  _atom_site_label
  _atom_site_symmetry_multiplicity
  _atom_site_fract_x
  _atom_site_fract_y
  _atom_site_fract_z
  _atom_site_occupancy
  C   C1        1.0  0.0  0.0  0.5315766917444329  1.0000
  C   C2        1.0  0.6666669847440474  0.3333329859851446  0.3738373854447214  1.0000
  Cl  Cl1       1.0  0.3333329854322145  0.6666669831836742  0.6698479566352369  1.0000
  N   N1        1.0  0.6666669847440474  0.3333329859851446  0.3301520433647631  1.0000
  O   O1        1.0  0.3333329854322145  0.6666669831836742  0.5775680026913819  1.0000
  S   S1        1.0  0.6666669847440474  0.3333329859851446  0.4353350305531731  1.0000
  Zr  Zr1       1.0  0.3333329854322145  0.6666669831836742  0.498104854955393  1.0000
  Zr  Zr2       1.0  0.6666669847440474  0.3333329859851446  0.5927342446267628  1.0000
