data_image0
_chemical_formula_structural       BrC2NOZr2
_chemical_formula_sum              "Br1 C2 N1 O1 Zr2"
_cell_length_a       3.4482590616466804
_cell_length_b       3.4482590616343645
_cell_length_c       26.278054411713217
_cell_angle_alpha    90.0
_cell_angle_beta     90.0
_cell_angle_gamma    120.00000000011815

_space_group_name_H-M_alt    "P 1"
_space_group_IT_number       1

loop_
  _space_group_symop_operation_xyz
  'x, y, z'

loop_
  _atom_site_type_symbol
  _atom_site_label
  _atom_site_symmetry_multiplicity
  _atom_site_fract_x
  _atom_site_fract_y
  _atom_site_fract_z
  _atom_site_occupancy
  Br  Br1       1.0  0.6666669847440475  0.3333329859851446  0.3424911090825783  1.0000
  C   C1        1.0  0.0  0.0  0.4638818926193308  1.0000
  C   C2        1.0  0.3333329854322145  0.6666669831836741  0.611635683932852  1.0000
  N   N1        1.0  0.3333329854322145  0.6666669831836741  0.5641644429142959  1.0000
  O   O1        1.0  0.3333329854322145  0.6666669831836741  0.6575088909174215  1.0000
  Zr  Zr1       1.0  0.3333329854322145  0.6666669831836741  0.4177309669393802  1.0000
  Zr  Zr2       1.0  0.6666669847440475  0.3333329859851446  0.5095626168184186  1.0000
