data_image0
_chemical_formula_structural       Cl2NOTi2
_chemical_formula_sum              "Cl2 N1 O1 Ti2"
_cell_length_a       3.093787016561889
_cell_length_b       3.0937870165513233
_cell_length_c       27.159121197364666
_cell_angle_alpha    90.0
_cell_angle_beta     90.0
_cell_angle_gamma    120.00000000011299

_space_group_name_H-M_alt    "P 1"
_space_group_IT_number       1

loop_
  _space_group_symop_operation_xyz
  'x, y, z'

loop_
  _atom_site_type_symbol
  _atom_site_label
  _atom_site_symmetry_multiplicity
  _atom_site_fract_x
  _atom_site_fract_y
  _atom_site_fract_z
  _atom_site_occupancy
  Cl  Cl1       1.0  0.3333329854322145  0.6666669831836742  0.6686196164228871  1.0000
  Cl  Cl2       1.0  0.6666669847440473  0.3333329859851446  0.3313803835771129  1.0000
  N   N1        1.0  0.0  0.0  0.4357276045726457  1.0000
  O   O1        1.0  0.3333329854322145  0.6666669831836742  0.5151827839075539  1.0000
  Ti  Ti1       1.0  0.3333329854322145  0.6666669831836742  0.3944563388886125  1.0000
  Ti  Ti2       1.0  0.6666669847440473  0.3333329859851446  0.4823484711890149  1.0000
