data_image0
_chemical_formula_structural       FN2OSc2
_chemical_formula_sum              "F1 N2 O1 Sc2"
_cell_length_a       3.3312397523461934
_cell_length_b       3.3312397523431008
_cell_length_c       24.037718143389686
_cell_angle_alpha    90.0
_cell_angle_beta     90.0
_cell_angle_gamma    120.0000000000307

_space_group_name_H-M_alt    "P 1"
_space_group_IT_number       1

loop_
  _space_group_symop_operation_xyz
  'x, y, z'

loop_
  _atom_site_type_symbol
  _atom_site_label
  _atom_site_symmetry_multiplicity
  _atom_site_fract_x
  _atom_site_fract_y
  _atom_site_fract_z
  _atom_site_occupancy
  F   F1        1.0  0.6666669847440474  0.3333329859851446  0.3744115787660561  1.0000
  N   N1        1.0  0.0  0.0  0.4664991022554564  1.0000
  N   N2        1.0  0.33333298543221446  0.6666669831836742  0.5705149558296756  1.0000
  O   O1        1.0  0.33333298543221446  0.6666669831836742  0.625588421233944  1.0000
  Sc  Sc1       1.0  0.33333298543221446  0.6666669831836742  0.42218528204004824  1.0000
  Sc  Sc2       1.0  0.6666669847440474  0.3333329859851446  0.5297417222769474  1.0000
