data_image0
_chemical_formula_structural       CHN2OSZr2
_chemical_formula_sum              "C1 H1 N2 O1 S1 Zr2"
_cell_length_a       3.3797620294591924
_cell_length_b       3.379762029448016
_cell_length_c       26.84328989803997
_cell_angle_alpha    90.0
_cell_angle_beta     90.0
_cell_angle_gamma    120.00000000010938

_space_group_name_H-M_alt    "P 1"
_space_group_IT_number       1

loop_
  _space_group_symop_operation_xyz
  'x, y, z'

loop_
  _atom_site_type_symbol
  _atom_site_label
  _atom_site_symmetry_multiplicity
  _atom_site_fract_x
  _atom_site_fract_y
  _atom_site_fract_z
  _atom_site_occupancy
  C   C1        1.0  0.3333329854322145  0.6666669831836743  0.6068661429276938  1.0000
  H   H1        1.0  0.6666669847440473  0.3333329859851446  0.3352793206117837  1.0000
  N   N1        1.0  0.0  0.0  0.4640393937090643  1.0000
  N   N2        1.0  0.3333329854322145  0.6666669831836743  0.5601297012598414  1.0000
  O   O1        1.0  0.6666669847440473  0.3333329859851446  0.3721032920326868  1.0000
  S   S1        1.0  0.3333329854322145  0.6666669831836743  0.6647206793882164  1.0000
  Zr  Zr1       1.0  0.3333329854322145  0.6666669831836743  0.4213381417709408  1.0000
  Zr  Zr2       1.0  0.6666669847440473  0.3333329859851446  0.5085028190229834  1.0000
