data_image0
_chemical_formula_structural       C3N2S2Zr2
_chemical_formula_sum              "C3 N2 S2 Zr2"
_cell_length_a       3.574612045888793
_cell_length_b       3.5746120458861217
_cell_length_c       29.437069363633
_cell_angle_alpha    90.0
_cell_angle_beta     90.0
_cell_angle_gamma    120.00000000002473

_space_group_name_H-M_alt    "P 1"
_space_group_IT_number       1

loop_
  _space_group_symop_operation_xyz
  'x, y, z'

loop_
  _atom_site_type_symbol
  _atom_site_label
  _atom_site_symmetry_multiplicity
  _atom_site_fract_x
  _atom_site_fract_y
  _atom_site_fract_z
  _atom_site_occupancy
  C   C1        1.0  0.0  0.0  0.5000000250207296  1.0000
  C   C2        1.0  0.3333329854322145  0.6666669831836742  0.6538101773988336  1.0000
  C   C3        1.0  0.6666669847440474  0.3333329859851446  0.3461898229718434  1.0000
  N   N1        1.0  0.3333329854322145  0.6666669831836742  0.6942630433476934  1.0000
  N   N2        1.0  0.6666669847440474  0.3333329859851446  0.30573695665230644  1.0000
  S   S1        1.0  0.3333329854322145  0.6666669831836742  0.5966853131471425  1.0000
  S   S2        1.0  0.6666669847440474  0.3333329859851446  0.4033146872235351  1.0000
  Zr  Zr1       1.0  0.3333329854322145  0.6666669831836742  0.46007015727729617  1.0000
  Zr  Zr2       1.0  0.6666669847440474  0.3333329859851446  0.5399298427226971  1.0000
