data_image0
_chemical_formula_structural       CHf2N2O2
_chemical_formula_sum              "C1 Hf2 N2 O2"
_cell_length_a       3.2324140023616814
_cell_length_b       3.232414002361545
_cell_length_c       25.42596546545011
_cell_angle_alpha    90.0
_cell_angle_beta     90.0
_cell_angle_gamma    120.00000000000142

_space_group_name_H-M_alt    "P 1"
_space_group_IT_number       1

loop_
  _space_group_symop_operation_xyz
  'x, y, z'

loop_
  _atom_site_type_symbol
  _atom_site_label
  _atom_site_symmetry_multiplicity
  _atom_site_fract_x
  _atom_site_fract_y
  _atom_site_fract_z
  _atom_site_occupancy
  C   C1        1.0  0.3333329854322145  0.6666669831836742  0.5986301066365087  1.0000
  Hf  Hf1       1.0  0.3333329854322145  0.6666669831836742  0.3923132741833815  1.0000
  Hf  Hf2       1.0  0.6666669847440474  0.3333329859851446  0.49327754936356066  1.0000
  N   N1        1.0  0.0  0.0  0.4424732101002136  1.0000
  N   N2        1.0  0.3333329854322145  0.6666669831836742  0.549365649379127  1.0000
  O   O1        1.0  0.3333329854322145  0.6666669831836742  0.6460311404013512  1.0000
  O   O2        1.0  0.6666669847440474  0.3333329859851446  0.3539688595986488  1.0000
